
*** ChampSim Multicore Out-of-Order Simulator ***

Warmup Instructions: 100
Simulation Instructions: 10000002
Number of CPUs: 1
LLC sets: 2048
LLC ways: 16
Off-chip DRAM Size: 4096 MB Channels: 1 Width: 64-bit Data Rate: 3200 MT/s

CPU 0 runs /home/jelee510/champsim/champsim-instruction-prefetcher/dpc3_traces/spec_gcc_001.champsimtrace.xz
CPU 0 Bimodal branch predictor

Warmup complete CPU 0 instructions: 102 cycles: 53 (Simulation time: 0 hr 0 min 0 sec) 

Caught signal: 2
