
*** ChampSim Multicore Out-of-Order Simulator ***

Warmup Instructions: 0
Simulation Instructions: 1000000
Number of CPUs: 1
LLC sets: 2048
LLC ways: 16
Off-chip DRAM Size: 4096 MB Channels: 1 Width: 64-bit Data Rate: 3200 MT/s

CPU 0 runs /home/kimuj0103/champsim-instruction-prefetcher/dpc3_traces/client_001.champsimtrace.xz
CPU 0 Bimodal branch predictor
[CIRCULAR_BUFFER] enqueue ip: 0xffffa8363b7c index: 0
0xffffa8363b7c
[CIRCULAR_BUFFER] enqueue ip: 0xffffa8363b80 index: 1
0xffffa8363b7c
0xffffa8363b80
[CIRCULAR_BUFFER] enqueue ip: 0xffffa8363e54 index: 2
0xffffa8363b7c
0xffffa8363b80
0xffffa8363e54
[CIRCULAR_BUFFER] enqueue ip: 0xffffa83fdb40 index: 3
0xffffa8363b7c
0xffffa8363b80
0xffffa8363e54
0xffffa83fdb40
[CIRCULAR_BUFFER] enqueue ip: 0xffffa83fdb54 index: 4
0xffffa8363b7c
0xffffa8363b80
0xffffa8363e54
0xffffa83fdb40
0xffffa83fdb54
[CIRCULAR_BUFFER] enqueue ip: 0xffffa83fdb80 index: 5
0xffffa8363b7c
0xffffa8363b80
0xffffa8363e54
0xffffa83fdb40
0xffffa83fdb54
0xffffa83fdb80
[CIRCULAR_BUFFER] enqueue ip: 0xffffa83fdb88 index: 6
0xffffa8363b7c
0xffffa8363b80
0xffffa8363e54
0xffffa83fdb40
0xffffa83fdb54
0xffffa83fdb80
0xffffa83fdb88
[CIRCULAR_BUFFER] enqueue ip: 0xffffa83fdba0 index: 7
0xffffa8363b7c
0xffffa8363b80
0xffffa8363e54
0xffffa83fdb40
0xffffa83fdb54
0xffffa83fdb80
0xffffa83fdb88
0xffffa83fdba0
[CIRCULAR_BUFFER] enqueue ip: 0xffffa83fdbc0 index: 8
0xffffa8363b7c
0xffffa8363b80
0xffffa8363e54
0xffffa83fdb40
0xffffa83fdb54
0xffffa83fdb80
0xffffa83fdb88
0xffffa83fdba0
0xffffa83fdbc0

Warmup complete CPU 0 instructions: 2 cycles: 16 (Simulation time: 0 hr 0 min 0 sec) 

[CIRCULAR_BUFFER] enqueue ip: 0xffffa83fdc30 index: 0
0xffffa83fdc30
[CIRCULAR_BUFFER] enqueue ip: 0xffffa83fdc34 index: 1
0xffffa83fdc30
0xffffa83fdc34
[CIRCULAR_BUFFER] enqueue ip: 0xffffa83fdc40 index: 2
0xffffa83fdc30
0xffffa83fdc34
0xffffa83fdc40
[CIRCULAR_BUFFER] enqueue ip: 0xffffa8184680 index: 3
0xffffa83fdc30
0xffffa83fdc34
0xffffa83fdc40
0xffffa8184680
[CIRCULAR_BUFFER] enqueue ip: 0xffffa83fddc0 index: 0
0xffffa83fddc0
[CIRCULAR_BUFFER] enqueue ip: 0xffffa83fe0d8 index: 1
0xffffa83fddc0
0xffffa83fe0d8
[CIRCULAR_BUFFER] enqueue ip: 0xffffa83fe100 index: 2
0xffffa83fddc0
0xffffa83fe0d8
0xffffa83fe100
[CIRCULAR_BUFFER] enqueue ip: 0xffffa83fde00 index: 3
0xffffa83fddc0
0xffffa83fe0d8
0xffffa83fe100
0xffffa83fde00
[CIRCULAR_BUFFER] enqueue ip: 0xffffa83fde08 index: 4
0xffffa83fddc0
0xffffa83fe0d8
0xffffa83fe100
0xffffa83fde00
0xffffa83fde08
[CIRCULAR_BUFFER] enqueue ip: 0xffffa83fde40 index: 5
0xffffa83fddc0
0xffffa83fe0d8
0xffffa83fe100
0xffffa83fde00
0xffffa83fde08
0xffffa83fde40
[CIRCULAR_BUFFER] enqueue ip: 0xffffa83fde48 index: 6
0xffffa83fddc0
0xffffa83fe0d8
0xffffa83fe100
0xffffa83fde00
0xffffa83fde08
0xffffa83fde40
0xffffa83fde48
[CIRCULAR_BUFFER] enqueue ip: 0xffffa83fdec4 index: 0
0xffffa83fdec4
[CIRCULAR_BUFFER] enqueue ip: 0xffffa8402800 index: 1
0xffffa83fdec4
0xffffa8402800
[CIRCULAR_BUFFER] enqueue ip: 0xffffa8402840 index: 2
0xffffa83fdec4
0xffffa8402800
0xffffa8402840
[CIRCULAR_BUFFER] enqueue ip: 0xffffa8402880 index: 3
0xffffa83fdec4
0xffffa8402800
0xffffa8402840
0xffffa8402880
[CIRCULAR_BUFFER] enqueue ip: 0xffffa8402888 index: 4
0xffffa83fdec4
0xffffa8402800
0xffffa8402840
0xffffa8402880
0xffffa8402888
[CIRCULAR_BUFFER] enqueue ip: 0xffffa84028c0 index: 5
0xffffa83fdec4
0xffffa8402800
0xffffa8402840
0xffffa8402880
0xffffa8402888
0xffffa84028c0
[CIRCULAR_BUFFER] enqueue ip: 0xffffa84028c8 index: 6
0xffffa83fdec4
0xffffa8402800
0xffffa8402840
0xffffa8402880
0xffffa8402888
0xffffa84028c0
0xffffa84028c8
[CIRCULAR_BUFFER] enqueue ip: 0xffffa8402900 index: 7
0xffffa83fdec4
0xffffa8402800
0xffffa8402840
0xffffa8402880
0xffffa8402888
0xffffa84028c0
0xffffa84028c8
0xffffa8402900
[CIRCULAR_BUFFER] enqueue ip: 0xffffa8402908 index: 8
0xffffa83fdec4
0xffffa8402800
0xffffa8402840
0xffffa8402880
0xffffa8402888
0xffffa84028c0
0xffffa84028c8
0xffffa8402900
0xffffa8402908
[CIRCULAR_BUFFER] enqueue ip: 0xffffa8402940 index: 9
0xffffa83fdec4
0xffffa8402800
0xffffa8402840
0xffffa8402880
0xffffa8402888
0xffffa84028c0
0xffffa84028c8
0xffffa8402900
0xffffa8402908
0xffffa8402940
[CIRCULAR_BUFFER] enqueue ip: 0xffffa8402948 index: 10
0xffffa83fdec4
0xffffa8402800
0xffffa8402840
0xffffa8402880
0xffffa8402888
0xffffa84028c0
0xffffa84028c8
0xffffa8402900
0xffffa8402908
0xffffa8402940
0xffffa8402948
[CIRCULAR_BUFFER] enqueue ip: 0xffffa83fdf00 index: 0
0xffffa83fdf00
[CIRCULAR_BUFFER] enqueue ip: 0xffffa83fdf14 index: 1
0xffffa83fdf00
0xffffa83fdf14
[CIRCULAR_BUFFER] enqueue ip: 0xffffa83fdf88 index: 0
0xffffa83fdf88
[CIRCULAR_BUFFER] enqueue ip: 0xffffa8413640 index: 1
0xffffa83fdf88
0xffffa8413640
[CIRCULAR_BUFFER] enqueue ip: 0xffffa8413680 index: 2
0xffffa83fdf88
0xffffa8413640
0xffffa8413680
[CIRCULAR_BUFFER] enqueue ip: 0xffffa84136c0 index: 3
0xffffa83fdf88
0xffffa8413640
0xffffa8413680
0xffffa84136c0
[CIRCULAR_BUFFER] enqueue ip: 0xffffa84136c8 index: 4
0xffffa83fdf88
0xffffa8413640
0xffffa8413680
0xffffa84136c0
0xffffa84136c8
[CIRCULAR_BUFFER] enqueue ip: 0xffffa8413700 index: 5
0xffffa83fdf88
0xffffa8413640
0xffffa8413680
0xffffa84136c0
0xffffa84136c8
0xffffa8413700
[CIRCULAR_BUFFER] enqueue ip: 0xffffa8413708 index: 6
0xffffa83fdf88
0xffffa8413640
0xffffa8413680
0xffffa84136c0
0xffffa84136c8
0xffffa8413700
0xffffa8413708
[CIRCULAR_BUFFER] enqueue ip: 0xffffa8413740 index: 7
0xffffa83fdf88
0xffffa8413640
0xffffa8413680
0xffffa84136c0
0xffffa84136c8
0xffffa8413700
0xffffa8413708
0xffffa8413740
[CIRCULAR_BUFFER] enqueue ip: 0xffffa8413748 index: 8
0xffffa83fdf88
0xffffa8413640
0xffffa8413680
0xffffa84136c0
0xffffa84136c8
0xffffa8413700
0xffffa8413708
0xffffa8413740
0xffffa8413748
[CIRCULAR_BUFFER] enqueue ip: 0xffffa8413780 index: 9
0xffffa83fdf88
0xffffa8413640
0xffffa8413680
0xffffa84136c0
0xffffa84136c8
0xffffa8413700
0xffffa8413708
0xffffa8413740
0xffffa8413748
0xffffa8413780
[CIRCULAR_BUFFER] enqueue ip: 0xffffa8413788 index: 10
0xffffa83fdf88
0xffffa8413640
0xffffa8413680
0xffffa84136c0
0xffffa84136c8
0xffffa8413700
0xffffa8413708
0xffffa8413740
0xffffa8413748
0xffffa8413780
0xffffa8413788
[CIRCULAR_BUFFER] enqueue ip: 0xffffa84137c0 index: 11
0xffffa83fdf88
0xffffa8413640
0xffffa8413680
0xffffa84136c0
0xffffa84136c8
0xffffa8413700
0xffffa8413708
0xffffa8413740
0xffffa8413748
0xffffa8413780
0xffffa8413788
0xffffa84137c0
[CIRCULAR_BUFFER] enqueue ip: 0xffffa8413800 index: 12
0xffffa83fdf88
0xffffa8413640
0xffffa8413680
0xffffa84136c0
0xffffa84136c8
0xffffa8413700
0xffffa8413708
0xffffa8413740
0xffffa8413748
0xffffa8413780
0xffffa8413788
0xffffa84137c0
0xffffa8413800
[CIRCULAR_BUFFER] enqueue ip: 0xffffa8413840 index: 13
0xffffa83fdf88
0xffffa8413640
0xffffa8413680
0xffffa84136c0
0xffffa84136c8
0xffffa8413700
0xffffa8413708
0xffffa8413740
0xffffa8413748
0xffffa8413780
0xffffa8413788
0xffffa84137c0
0xffffa8413800
0xffffa8413840
[CIRCULAR_BUFFER] enqueue ip: 0xffffa8413854 index: 14
0xffffa83fdf88
0xffffa8413640
0xffffa8413680
0xffffa84136c0
0xffffa84136c8
0xffffa8413700
0xffffa8413708
0xffffa8413740
0xffffa8413748
0xffffa8413780
0xffffa8413788
0xffffa84137c0
0xffffa8413800
0xffffa8413840
0xffffa8413854
[CIRCULAR_BUFFER] enqueue ip: 0xffffa84138dc index: 0
0xffffa84138dc
[CIRCULAR_BUFFER] enqueue ip: 0xffffa8413900 index: 1
0xffffa84138dc
0xffffa8413900
[CIRCULAR_BUFFER] enqueue ip: 0xffffa83fdfc0 index: 2
0xffffa84138dc
0xffffa8413900
0xffffa83fdfc0
[CIRCULAR_BUFFER] enqueue ip: 0xffffa83fdfd4 index: 3
0xffffa84138dc
0xffffa8413900
0xffffa83fdfc0
0xffffa83fdfd4
[CIRCULAR_BUFFER] enqueue ip: 0xffffa83fe048 index: 0
0xffffa83fe048
[CIRCULAR_BUFFER] enqueue ip: 0xffffa83fe080 index: 0
0xffffa83fe080
[CIRCULAR_BUFFER] enqueue ip: 0xffffa83fe094 index: 1
0xffffa83fe080
0xffffa83fe094
[CIRCULAR_BUFFER] enqueue ip: 0xffffa83fe6e4 index: 0
0xffffa83fe6e4
[CIRCULAR_BUFFER] enqueue ip: 0xffffa83fe700 index: 1
0xffffa83fe6e4
0xffffa83fe700
[CIRCULAR_BUFFER] enqueue ip: 0xffffa8363e80 index: 2
0xffffa83fe6e4
0xffffa83fe700
0xffffa8363e80
[CIRCULAR_BUFFER] enqueue ip: 0xffffa8363e90 index: 3
0xffffa83fe6e4
0xffffa83fe700
0xffffa8363e80
0xffffa8363e90
[CIRCULAR_BUFFER] enqueue ip: 0xffffa8363ec0 index: 4
0xffffa83fe6e4
0xffffa83fe700
0xffffa8363e80
0xffffa8363e90
0xffffa8363ec0
[CIRCULAR_BUFFER] enqueue ip: 0xffffa8363ec8 index: 5
0xffffa83fe6e4
0xffffa83fe700
0xffffa8363e80
0xffffa8363e90
0xffffa8363ec0
0xffffa8363ec8
[CIRCULAR_BUFFER] enqueue ip: 0xffffa8363f00 index: 6
0xffffa83fe6e4
0xffffa83fe700
0xffffa8363e80
0xffffa8363e90
0xffffa8363ec0
0xffffa8363ec8
0xffffa8363f00
[CIRCULAR_BUFFER] enqueue ip: 0xffffa8363f40 index: 0
0xffffa8363f40
[CIRCULAR_BUFFER] enqueue ip: 0xffffa83fef80 index: 1
0xffffa8363f40
0xffffa83fef80
[CIRCULAR_BUFFER] enqueue ip: 0xffffa83fefc0 index: 2
0xffffa8363f40
0xffffa83fef80
0xffffa83fefc0
[CIRCULAR_BUFFER] enqueue ip: 0xffffa83fefc8 index: 3
0xffffa8363f40
0xffffa83fef80
0xffffa83fefc0
0xffffa83fefc8
[CIRCULAR_BUFFER] enqueue ip: 0xffffa83ff000 index: 4
0xffffa8363f40
0xffffa83fef80
0xffffa83fefc0
0xffffa83fefc8
0xffffa83ff000
[CIRCULAR_BUFFER] enqueue ip: 0xffffa83ff008 index: 5
0xffffa8363f40
0xffffa83fef80
0xffffa83fefc0
0xffffa83fefc8
0xffffa83ff000
0xffffa83ff008
[CIRCULAR_BUFFER] enqueue ip: 0xffffa83ff040 index: 6
0xffffa8363f40
0xffffa83fef80
0xffffa83fefc0
0xffffa83fefc8
0xffffa83ff000
0xffffa83ff008
0xffffa83ff040
[CIRCULAR_BUFFER] enqueue ip: 0xffffa83ff048 index: 7
0xffffa8363f40
0xffffa83fef80
0xffffa83fefc0
0xffffa83fefc8
0xffffa83ff000
0xffffa83ff008
0xffffa83ff040
0xffffa83ff048
[CIRCULAR_BUFFER] enqueue ip: 0xffffa83ff080 index: 8
0xffffa8363f40
0xffffa83fef80
0xffffa83fefc0
0xffffa83fefc8
0xffffa83ff000
0xffffa83ff008
0xffffa83ff040
0xffffa83ff048
0xffffa83ff080
[CIRCULAR_BUFFER] enqueue ip: 0xffffa83ff088 index: 9
0xffffa8363f40
0xffffa83fef80
0xffffa83fefc0
0xffffa83fefc8
0xffffa83ff000
0xffffa83ff008
0xffffa83ff040
0xffffa83ff048
0xffffa83ff080
0xffffa83ff088
[CIRCULAR_BUFFER] enqueue ip: 0xffffa83ff0c0 index: 0
0xffffa83ff0c0
[CIRCULAR_BUFFER] enqueue ip: 0xffffa83ff0d8 index: 1
0xffffa83ff0c0
0xffffa83ff0d8
[CIRCULAR_BUFFER] enqueue ip: 0xffffa80c0640 index: 2
0xffffa83ff0c0
0xffffa83ff0d8
0xffffa80c0640
[CIRCULAR_BUFFER] enqueue ip: 0xffffa80c0680 index: 3
0xffffa83ff0c0
0xffffa83ff0d8
0xffffa80c0640
0xffffa80c0680
[CIRCULAR_BUFFER] enqueue ip: 0xffffa80c06e8 index: 4
0xffffa83ff0c0
0xffffa83ff0d8
0xffffa80c0640
0xffffa80c0680
0xffffa80c06e8
[CIRCULAR_BUFFER] enqueue ip: 0xffffa80c0700 index: 5
0xffffa83ff0c0
0xffffa83ff0d8
0xffffa80c0640
0xffffa80c0680
0xffffa80c06e8
0xffffa80c0700
[CIRCULAR_BUFFER] enqueue ip: 0xffffa80c0718 index: 0
0xffffa80c0718
[CIRCULAR_BUFFER] enqueue ip: 0xffffa83ff120 index: 1
0xffffa80c0718
0xffffa83ff120
[CIRCULAR_BUFFER] enqueue ip: 0xffffa83ff140 index: 2
0xffffa80c0718
0xffffa83ff120
0xffffa83ff140
[CIRCULAR_BUFFER] enqueue ip: 0xffffa83ff150 index: 3
0xffffa80c0718
0xffffa83ff120
0xffffa83ff140
0xffffa83ff150
[CIRCULAR_BUFFER] enqueue ip: 0xffffa83ff2a8 index: 0
0xffffa83ff2a8
[CIRCULAR_BUFFER] enqueue ip: 0xffffa8362f74 index: 0
0xffffa8362f74
[CIRCULAR_BUFFER] enqueue ip: 0xffffa8362f80 index: 1
0xffffa8362f74
0xffffa8362f80
[CIRCULAR_BUFFER] enqueue ip: 0xffffa838cdf8 index: 2
0xffffa8362f74
0xffffa8362f80
0xffffa838cdf8
[CIRCULAR_BUFFER] enqueue ip: 0xffffa838ce00 index: 3
0xffffa8362f74
0xffffa8362f80
0xffffa838cdf8
0xffffa838ce00
[CIRCULAR_BUFFER] enqueue ip: 0xffffa838ce40 index: 4
0xffffa8362f74
0xffffa8362f80
0xffffa838cdf8
0xffffa838ce00
0xffffa838ce40
[CIRCULAR_BUFFER] enqueue ip: 0xffffa838ce64 index: 5
0xffffa8362f74
0xffffa8362f80
0xffffa838cdf8
0xffffa838ce00
0xffffa838ce40
0xffffa838ce64
[CIRCULAR_BUFFER] enqueue ip: 0xffffa838ce80 index: 6
0xffffa8362f74
0xffffa8362f80
0xffffa838cdf8
0xffffa838ce00
0xffffa838ce40
0xffffa838ce64
0xffffa838ce80
[CIRCULAR_BUFFER] enqueue ip: 0xffffa838ce88 index: 7
0xffffa8362f74
0xffffa8362f80
0xffffa838cdf8
0xffffa838ce00
0xffffa838ce40
0xffffa838ce64
0xffffa838ce80
0xffffa838ce88
[CIRCULAR_BUFFER] enqueue ip: 0xffffa838d084 index: 8
0xffffa8362f74
0xffffa8362f80
0xffffa838cdf8
0xffffa838ce00
0xffffa838ce40
0xffffa838ce64
0xffffa838ce80
0xffffa838ce88
0xffffa838d084
[CIRCULAR_BUFFER] enqueue ip: 0xffffa838d0c0 index: 9
0xffffa8362f74
0xffffa8362f80
0xffffa838cdf8
0xffffa838ce00
0xffffa838ce40
0xffffa838ce64
0xffffa838ce80
0xffffa838ce88
0xffffa838d084
0xffffa838d0c0
[CIRCULAR_BUFFER] enqueue ip: 0xffffa838d0cc index: 10
0xffffa8362f74
0xffffa8362f80
0xffffa838cdf8
0xffffa838ce00
0xffffa838ce40
0xffffa838ce64
0xffffa838ce80
0xffffa838ce88
0xffffa838d084
0xffffa838d0c0
0xffffa838d0cc
[CIRCULAR_BUFFER] enqueue ip: 0xffffa838d100 index: 11
0xffffa8362f74
0xffffa8362f80
0xffffa838cdf8
0xffffa838ce00
0xffffa838ce40
0xffffa838ce64
0xffffa838ce80
0xffffa838ce88
0xffffa838d084
0xffffa838d0c0
0xffffa838d0cc
0xffffa838d100
[CIRCULAR_BUFFER] enqueue ip: 0xffffa838d108 index: 12
0xffffa8362f74
0xffffa8362f80
0xffffa838cdf8
0xffffa838ce00
0xffffa838ce40
0xffffa838ce64
0xffffa838ce80
0xffffa838ce88
0xffffa838d084
0xffffa838d0c0
0xffffa838d0cc
0xffffa838d100
0xffffa838d108
[CIRCULAR_BUFFER] enqueue ip: 0xffffa838d140 index: 13
0xffffa8362f74
0xffffa8362f80
0xffffa838cdf8
0xffffa838ce00
0xffffa838ce40
0xffffa838ce64
0xffffa838ce80
0xffffa838ce88
0xffffa838d084
0xffffa838d0c0
0xffffa838d0cc
0xffffa838d100
0xffffa838d108
0xffffa838d140
[CIRCULAR_BUFFER] enqueue ip: 0xffffa838d148 index: 14
0xffffa8362f74
0xffffa8362f80
0xffffa838cdf8
0xffffa838ce00
0xffffa838ce40
0xffffa838ce64
0xffffa838ce80
0xffffa838ce88
0xffffa838d084
0xffffa838d0c0
0xffffa838d0cc
0xffffa838d100
0xffffa838d108
0xffffa838d140
0xffffa838d148
[CIRCULAR_BUFFER] enqueue ip: 0xffffa838d180 index: 15
0xffffa8362f74
0xffffa8362f80
0xffffa838cdf8
0xffffa838ce00
0xffffa838ce40
0xffffa838ce64
0xffffa838ce80
0xffffa838ce88
0xffffa838d084
0xffffa838d0c0
0xffffa838d0cc
0xffffa838d100
0xffffa838d108
0xffffa838d140
0xffffa838d148
0xffffa838d180
[CIRCULAR_BUFFER] enqueue ip: 0xffffa838d188 index: 16
0xffffa8362f74
0xffffa8362f80
0xffffa838cdf8
0xffffa838ce00
0xffffa838ce40
0xffffa838ce64
0xffffa838ce80
0xffffa838ce88
0xffffa838d084
0xffffa838d0c0
0xffffa838d0cc
0xffffa838d100
0xffffa838d108
0xffffa838d140
0xffffa838d148
0xffffa838d180
0xffffa838d188
[CIRCULAR_BUFFER] enqueue ip: 0xffffa838a1d0 index: 0
0xffffa838a1d0
[CIRCULAR_BUFFER] enqueue ip: 0xffffa838a200 index: 1
0xffffa838a1d0
0xffffa838a200
[CIRCULAR_BUFFER] enqueue ip: 0xffffa8180b00 index: 0
0xffffa8180b00
[CIRCULAR_BUFFER] enqueue ip: 0xffffa8385480 index: 1
0xffffa8180b00
0xffffa8385480
[CIRCULAR_BUFFER] enqueue ip: 0xffffa83854c0 index: 2
0xffffa8180b00
0xffffa8385480
0xffffa83854c0
[CIRCULAR_BUFFER] enqueue ip: 0xffffa83854c8 index: 3
0xffffa8180b00
0xffffa8385480
0xffffa83854c0
0xffffa83854c8
[CIRCULAR_BUFFER] enqueue ip: 0xffffa8385500 index: 4
0xffffa8180b00
0xffffa8385480
0xffffa83854c0
0xffffa83854c8
0xffffa8385500
[CIRCULAR_BUFFER] enqueue ip: 0xffffa8385528 index: 5
0xffffa8180b00
0xffffa8385480
0xffffa83854c0
0xffffa83854c8
0xffffa8385500
0xffffa8385528
[CIRCULAR_BUFFER] enqueue ip: 0xffffa8385540 index: 0
0xffffa8385540
[CIRCULAR_BUFFER] enqueue ip: 0xffffa845bcc0 index: 1
0xffffa8385540
0xffffa845bcc0
[CIRCULAR_BUFFER] enqueue ip: 0xffffa845bd00 index: 2
0xffffa8385540
0xffffa845bcc0
0xffffa845bd00
[CIRCULAR_BUFFER] enqueue ip: 0xffffa845bd08 index: 3
0xffffa8385540
0xffffa845bcc0
0xffffa845bd00
0xffffa845bd08
[CIRCULAR_BUFFER] enqueue ip: 0xffffa845bd40 index: 0
0xffffa845bd40
[CIRCULAR_BUFFER] enqueue ip: 0xffffa8307580 index: 1
0xffffa845bd40
0xffffa8307580
[CIRCULAR_BUFFER] enqueue ip: 0xffffa83075c0 index: 2
0xffffa845bd40
0xffffa8307580
0xffffa83075c0
[CIRCULAR_BUFFER] enqueue ip: 0xffffa83075c8 index: 3
0xffffa845bd40
0xffffa8307580
0xffffa83075c0
0xffffa83075c8
[CIRCULAR_BUFFER] enqueue ip: 0xffffa8307600 index: 4
0xffffa845bd40
0xffffa8307580
0xffffa83075c0
0xffffa83075c8
0xffffa8307600
[CIRCULAR_BUFFER] enqueue ip: 0xffffa8307608 index: 0
0xffffa8307608
[CIRCULAR_BUFFER] enqueue ip: 0xffffa8389e90 index: 1
0xffffa8307608
0xffffa8389e90
[CIRCULAR_BUFFER] enqueue ip: 0xffffa8389ec4 index: 0
0xffffa8389ec4
[CIRCULAR_BUFFER] enqueue ip: 0xffffa8455e00 index: 0
0xffffa8455e00
[CIRCULAR_BUFFER] enqueue ip: 0xffffa8455e40 index: 1
0xffffa8455e00
0xffffa8455e40
[CIRCULAR_BUFFER] enqueue ip: 0xffffa8455e48 index: 2
0xffffa8455e00
0xffffa8455e40
0xffffa8455e48
[CIRCULAR_BUFFER] enqueue ip: 0xffffa82b1210 index: 3
0xffffa8455e00
0xffffa8455e40
0xffffa8455e48
0xffffa82b1210
[CIRCULAR_BUFFER] enqueue ip: 0xffffa82b1240 index: 0
0xffffa82b1240
[CIRCULAR_BUFFER] enqueue ip: 0xffffa8455e80 index: 1
0xffffa82b1240
0xffffa8455e80
[CIRCULAR_BUFFER] enqueue ip: 0xffffa8455ea8 index: 2
0xffffa82b1240
0xffffa8455e80
0xffffa8455ea8
[CIRCULAR_BUFFER] enqueue ip: 0xffffa8455ec0 index: 3
0xffffa82b1240
0xffffa8455e80
0xffffa8455ea8
0xffffa8455ec0
[CIRCULAR_BUFFER] enqueue ip: 0xffffa8455ec8 index: 4
0xffffa82b1240
0xffffa8455e80
0xffffa8455ea8
0xffffa8455ec0
0xffffa8455ec8
[CIRCULAR_BUFFER] enqueue ip: 0xffffa8455f00 index: 5
0xffffa82b1240
0xffffa8455e80
0xffffa8455ea8
0xffffa8455ec0
0xffffa8455ec8
0xffffa8455f00
[CIRCULAR_BUFFER] enqueue ip: 0xffffa8455f08 index: 6
0xffffa82b1240
0xffffa8455e80
0xffffa8455ea8
0xffffa8455ec0
0xffffa8455ec8
0xffffa8455f00
0xffffa8455f08
[CIRCULAR_BUFFER] enqueue ip: 0xffffa8455f84 index: 0
0xffffa8455f84
[CIRCULAR_BUFFER] enqueue ip: 0xffffb75645d8 index: 0
0xffffb75645d8
[CIRCULAR_BUFFER] enqueue ip: 0xffffb7806b08 index: 1
0xffffb75645d8
0xffffb7806b08
[CIRCULAR_BUFFER] enqueue ip: 0xffffb7564608 index: 2
0xffffb75645d8
0xffffb7806b08
0xffffb7564608
[CIRCULAR_BUFFER] enqueue ip: 0xffffb7564650 index: 3
0xffffb75645d8
0xffffb7806b08
0xffffb7564608
0xffffb7564650
[CIRCULAR_BUFFER] enqueue ip: 0xffffa8455fc0 index: 4
0xffffb75645d8
0xffffb7806b08
0xffffb7564608
0xffffb7564650
0xffffa8455fc0
[CIRCULAR_BUFFER] enqueue ip: 0xffffa8455fc8 index: 5
0xffffb75645d8
0xffffb7806b08
0xffffb7564608
0xffffb7564650
0xffffa8455fc0
0xffffa8455fc8
[CIRCULAR_BUFFER] enqueue ip: 0xffffa8456000 index: 6
0xffffb75645d8
0xffffb7806b08
0xffffb7564608
0xffffb7564650
0xffffa8455fc0
0xffffa8455fc8
0xffffa8456000
[CIRCULAR_BUFFER] enqueue ip: 0xffffa8456008 index: 7
0xffffb75645d8
0xffffb7806b08
0xffffb7564608
0xffffb7564650
0xffffa8455fc0
0xffffa8455fc8
0xffffa8456000
0xffffa8456008
[CIRCULAR_BUFFER] enqueue ip: 0xffffa8456040 index: 8
0xffffb75645d8
0xffffb7806b08
0xffffb7564608
0xffffb7564650
0xffffa8455fc0
0xffffa8455fc8
0xffffa8456000
0xffffa8456008
0xffffa8456040
[CIRCULAR_BUFFER] enqueue ip: 0xffffa8456048 index: 9
0xffffb75645d8
0xffffb7806b08
0xffffb7564608
0xffffb7564650
0xffffa8455fc0
0xffffa8455fc8
0xffffa8456000
0xffffa8456008
0xffffa8456040
0xffffa8456048
[CIRCULAR_BUFFER] enqueue ip: 0xffffa8456128 index: 10
0xffffb75645d8
0xffffb7806b08
0xffffb7564608
0xffffb7564650
0xffffa8455fc0
0xffffa8455fc8
0xffffa8456000
0xffffa8456008
0xffffa8456040
0xffffa8456048
0xffffa8456128
[CIRCULAR_BUFFER] enqueue ip: 0xffffa8456140 index: 11
0xffffb75645d8
0xffffb7806b08
0xffffb7564608
0xffffb7564650
0xffffa8455fc0
0xffffa8455fc8
0xffffa8456000
0xffffa8456008
0xffffa8456040
0xffffa8456048
0xffffa8456128
0xffffa8456140
[CIRCULAR_BUFFER] enqueue ip: 0xffffa8456158 index: 0
0xffffa8456158
[CIRCULAR_BUFFER] enqueue ip: 0xffffa838ba10 index: 1
0xffffa8456158
0xffffa838ba10
[CIRCULAR_BUFFER] enqueue ip: 0xffffa838bb20 index: 0
0xffffa838bb20
[CIRCULAR_BUFFER] enqueue ip: 0xffffa8456180 index: 1
0xffffa838bb20
0xffffa8456180
[CIRCULAR_BUFFER] enqueue ip: 0xffffa8456198 index: 2
0xffffa838bb20
0xffffa8456180
0xffffa8456198
[CIRCULAR_BUFFER] enqueue ip: 0xffffa84561c0 index: 3
0xffffa838bb20
0xffffa8456180
0xffffa8456198
0xffffa84561c0
[CIRCULAR_BUFFER] enqueue ip: 0xffffa84561c8 index: 4
0xffffa838bb20
0xffffa8456180
0xffffa8456198
0xffffa84561c0
0xffffa84561c8
[CIRCULAR_BUFFER] enqueue ip: 0xffffa8456200 index: 5
0xffffa838bb20
0xffffa8456180
0xffffa8456198
0xffffa84561c0
0xffffa84561c8
0xffffa8456200
[CIRCULAR_BUFFER] enqueue ip: 0xffffa8456208 index: 0
0xffffa8456208
[CIRCULAR_BUFFER] enqueue ip: 0xffffa835e550 index: 1
0xffffa8456208
0xffffa835e550
[CIRCULAR_BUFFER] enqueue ip: 0xffffa835e5c4 index: 0
0xffffa835e5c4
[CIRCULAR_BUFFER] enqueue ip: 0xffffa8456240 index: 1
0xffffa835e5c4
0xffffa8456240
[CIRCULAR_BUFFER] enqueue ip: 0xffffa8456258 index: 2
0xffffa835e5c4
0xffffa8456240
0xffffa8456258
[CIRCULAR_BUFFER] enqueue ip: 0xffffa8456280 index: 3
0xffffa835e5c4
0xffffa8456240
0xffffa8456258
0xffffa8456280
[CIRCULAR_BUFFER] enqueue ip: 0xffffa8456288 index: 4
0xffffa835e5c4
0xffffa8456240
0xffffa8456258
0xffffa8456280
0xffffa8456288
[CIRCULAR_BUFFER] enqueue ip: 0xffffa84562c0 index: 5
0xffffa835e5c4
0xffffa8456240
0xffffa8456258
0xffffa8456280
0xffffa8456288
0xffffa84562c0
[CIRCULAR_BUFFER] enqueue ip: 0xffffa84562c8 index: 6
0xffffa835e5c4
0xffffa8456240
0xffffa8456258
0xffffa8456280
0xffffa8456288
0xffffa84562c0
0xffffa84562c8
[CIRCULAR_BUFFER] enqueue ip: 0xffffa8456300 index: 7
0xffffa835e5c4
0xffffa8456240
0xffffa8456258
0xffffa8456280
0xffffa8456288
0xffffa84562c0
0xffffa84562c8
0xffffa8456300
[CIRCULAR_BUFFER] enqueue ip: 0xffffa8456308 index: 8
0xffffa835e5c4
0xffffa8456240
0xffffa8456258
0xffffa8456280
0xffffa8456288
0xffffa84562c0
0xffffa84562c8
0xffffa8456300
0xffffa8456308
[CIRCULAR_BUFFER] enqueue ip: 0xffffa8456340 index: 9
0xffffa835e5c4
0xffffa8456240
0xffffa8456258
0xffffa8456280
0xffffa8456288
0xffffa84562c0
0xffffa84562c8
0xffffa8456300
0xffffa8456308
0xffffa8456340
[CIRCULAR_BUFFER] enqueue ip: 0xffffa8456348 index: 10
0xffffa835e5c4
0xffffa8456240
0xffffa8456258
0xffffa8456280
0xffffa8456288
0xffffa84562c0
0xffffa84562c8
0xffffa8456300
0xffffa8456308
0xffffa8456340
0xffffa8456348
[CIRCULAR_BUFFER] enqueue ip: 0xffffa8456380 index: 11
0xffffa835e5c4
0xffffa8456240
0xffffa8456258
0xffffa8456280
0xffffa8456288
0xffffa84562c0
0xffffa84562c8
0xffffa8456300
0xffffa8456308
0xffffa8456340
0xffffa8456348
0xffffa8456380
[CIRCULAR_BUFFER] enqueue ip: 0xffffa8456398 index: 12
0xffffa835e5c4
0xffffa8456240
0xffffa8456258
0xffffa8456280
0xffffa8456288
0xffffa84562c0
0xffffa84562c8
0xffffa8456300
0xffffa8456308
0xffffa8456340
0xffffa8456348
0xffffa8456380
0xffffa8456398
[CIRCULAR_BUFFER] enqueue ip: 0xffffa8456650 index: 13
0xffffa835e5c4
0xffffa8456240
0xffffa8456258
0xffffa8456280
0xffffa8456288
0xffffa84562c0
0xffffa84562c8
0xffffa8456300
0xffffa8456308
0xffffa8456340
0xffffa8456348
0xffffa8456380
0xffffa8456398
0xffffa8456650
[CIRCULAR_BUFFER] enqueue ip: 0xffffa84563c0 index: 14
0xffffa835e5c4
0xffffa8456240
0xffffa8456258
0xffffa8456280
0xffffa8456288
0xffffa84562c0
0xffffa84562c8
0xffffa8456300
0xffffa8456308
0xffffa8456340
0xffffa8456348
0xffffa8456380
0xffffa8456398
0xffffa8456650
0xffffa84563c0
[CIRCULAR_BUFFER] enqueue ip: 0xffffa84563d0 index: 15
0xffffa835e5c4
0xffffa8456240
0xffffa8456258
0xffffa8456280
0xffffa8456288
0xffffa84562c0
0xffffa84562c8
0xffffa8456300
0xffffa8456308
0xffffa8456340
0xffffa8456348
0xffffa8456380
0xffffa8456398
0xffffa8456650
0xffffa84563c0
0xffffa84563d0
[CIRCULAR_BUFFER] enqueue ip: 0xffffa8456400 index: 16
0xffffa835e5c4
0xffffa8456240
0xffffa8456258
0xffffa8456280
0xffffa8456288
0xffffa84562c0
0xffffa84562c8
0xffffa8456300
0xffffa8456308
0xffffa8456340
0xffffa8456348
0xffffa8456380
0xffffa8456398
0xffffa8456650
0xffffa84563c0
0xffffa84563d0
0xffffa8456400
[CIRCULAR_BUFFER] enqueue ip: 0xffffa8456408 index: 0
0xffffa8456408
[CIRCULAR_BUFFER] enqueue ip: 0xffffa844da80 index: 1
0xffffa8456408
0xffffa844da80
[CIRCULAR_BUFFER] enqueue ip: 0xffffa844dac0 index: 2
0xffffa8456408
0xffffa844da80
0xffffa844dac0
[CIRCULAR_BUFFER] enqueue ip: 0xffffa844dac8 index: 3
0xffffa8456408
0xffffa844da80
0xffffa844dac0
0xffffa844dac8
[CIRCULAR_BUFFER] enqueue ip: 0xffffa844db00 index: 4
0xffffa8456408
0xffffa844da80
0xffffa844dac0
0xffffa844dac8
0xffffa844db00
[CIRCULAR_BUFFER] enqueue ip: 0xffffa844db08 index: 5
0xffffa8456408
0xffffa844da80
0xffffa844dac0
0xffffa844dac8
0xffffa844db00
0xffffa844db08
[CIRCULAR_BUFFER] enqueue ip: 0xffffa844dbe4 index: 6
0xffffa8456408
0xffffa844da80
0xffffa844dac0
0xffffa844dac8
0xffffa844db00
0xffffa844db08
0xffffa844dbe4
[CIRCULAR_BUFFER] enqueue ip: 0xffffa844dc00 index: 7
0xffffa8456408
0xffffa844da80
0xffffa844dac0
0xffffa844dac8
0xffffa844db00
0xffffa844db08
0xffffa844dbe4
0xffffa844dc00
[CIRCULAR_BUFFER] enqueue ip: 0xffffa844dc14 index: 8
0xffffa8456408
0xffffa844da80
0xffffa844dac0
0xffffa844dac8
0xffffa844db00
0xffffa844db08
0xffffa844dbe4
0xffffa844dc00
0xffffa844dc14
[CIRCULAR_BUFFER] enqueue ip: 0xffffa844dc40 index: 9
0xffffa8456408
0xffffa844da80
0xffffa844dac0
0xffffa844dac8
0xffffa844db00
0xffffa844db08
0xffffa844dbe4
0xffffa844dc00
0xffffa844dc14
0xffffa844dc40
[CIRCULAR_BUFFER] enqueue ip: 0xffffa844dc48 index: 0
0xffffa844dc48
[CIRCULAR_BUFFER] enqueue ip: 0xffffa83c2b90 index: 1
0xffffa844dc48
0xffffa83c2b90
[CIRCULAR_BUFFER] enqueue ip: 0xffffa83c2bc0 index: 2
0xffffa844dc48
0xffffa83c2b90
0xffffa83c2bc0
[CIRCULAR_BUFFER] enqueue ip: 0xffffa83c2c00 index: 3
0xffffa844dc48
0xffffa83c2b90
0xffffa83c2bc0
0xffffa83c2c00
[CIRCULAR_BUFFER] enqueue ip: 0xffffa83c2c08 index: 4
0xffffa844dc48
0xffffa83c2b90
0xffffa83c2bc0
0xffffa83c2c00
0xffffa83c2c08
[CIRCULAR_BUFFER] enqueue ip: 0xffffa83c2c40 index: 5
0xffffa844dc48
0xffffa83c2b90
0xffffa83c2bc0
0xffffa83c2c00
0xffffa83c2c08
0xffffa83c2c40
[CIRCULAR_BUFFER] enqueue ip: 0xffffa83c2c48 index: 0
0xffffa83c2c48
[CIRCULAR_BUFFER] enqueue ip: 0xffffa844dc80 index: 1
0xffffa83c2c48
0xffffa844dc80
[CIRCULAR_BUFFER] enqueue ip: 0xffffa844dc8c index: 2
0xffffa83c2c48
0xffffa844dc80
0xffffa844dc8c
[CIRCULAR_BUFFER] enqueue ip: 0xffffa844ddf0 index: 3
0xffffa83c2c48
0xffffa844dc80
0xffffa844dc8c
0xffffa844ddf0
[CIRCULAR_BUFFER] enqueue ip: 0xffffa844de00 index: 4
0xffffa83c2c48
0xffffa844dc80
0xffffa844dc8c
0xffffa844ddf0
0xffffa844de00
[CIRCULAR_BUFFER] enqueue ip: 0xffffa844e5a0 index: 0
0xffffa844e5a0
[CIRCULAR_BUFFER] enqueue ip: 0xffffa844e5c0 index: 1
0xffffa844e5a0
0xffffa844e5c0
[CIRCULAR_BUFFER] enqueue ip: 0xffffa83db350 index: 0
0xffffa83db350
[CIRCULAR_BUFFER] enqueue ip: 0xffffa83b6990 index: 1
0xffffa83db350
0xffffa83b6990
[CIRCULAR_BUFFER] enqueue ip: 0xffffa83b69c0 index: 0
0xffffa83b69c0
[CIRCULAR_BUFFER] enqueue ip: 0xffffa83db380 index: 0
0xffffa83db380
[CIRCULAR_BUFFER] enqueue ip: 0xffffa83d7fc0 index: 1
0xffffa83db380
0xffffa83d7fc0
[CIRCULAR_BUFFER] enqueue ip: 0xffffa83d8018 index: 0
0xffffa83d8018
[CIRCULAR_BUFFER] enqueue ip: 0xffffa8340b50 index: 1
0xffffa83d8018
0xffffa8340b50
[CIRCULAR_BUFFER] enqueue ip: 0xffffa8340b80 index: 2
0xffffa83d8018
0xffffa8340b50
0xffffa8340b80
[CIRCULAR_BUFFER] enqueue ip: 0xffffa8340c0c index: 0
0xffffa8340c0c
[CIRCULAR_BUFFER] enqueue ip: 0xffffa83ad780 index: 1
0xffffa8340c0c
0xffffa83ad780
[CIRCULAR_BUFFER] enqueue ip: 0xffffa83ad7c0 index: 2
0xffffa8340c0c
0xffffa83ad780
0xffffa83ad7c0
[CIRCULAR_BUFFER] enqueue ip: 0xffffa83ad800 index: 3
0xffffa8340c0c
0xffffa83ad780
0xffffa83ad7c0
0xffffa83ad800
[CIRCULAR_BUFFER] enqueue ip: 0xffffa83ad808 index: 4
0xffffa8340c0c
0xffffa83ad780
0xffffa83ad7c0
0xffffa83ad800
0xffffa83ad808
[CIRCULAR_BUFFER] enqueue ip: 0xffffa83ad840 index: 5
0xffffa8340c0c
0xffffa83ad780
0xffffa83ad7c0
0xffffa83ad800
0xffffa83ad808
0xffffa83ad840
[CIRCULAR_BUFFER] enqueue ip: 0xffffa83ad848 index: 6
0xffffa8340c0c
0xffffa83ad780
0xffffa83ad7c0
0xffffa83ad800
0xffffa83ad808
0xffffa83ad840
0xffffa83ad848
[CIRCULAR_BUFFER] enqueue ip: 0xffffa80bf078 index: 0
0xffffa80bf078
[CIRCULAR_BUFFER] enqueue ip: 0xffffa80bf080 index: 1
0xffffa80bf078
0xffffa80bf080
[CIRCULAR_BUFFER] enqueue ip: 0xffffa80bef08 index: 2
0xffffa80bf078
0xffffa80bf080
0xffffa80bef08
[CIRCULAR_BUFFER] enqueue ip: 0xffffa80bef98 index: 3
0xffffa80bf078
0xffffa80bf080
0xffffa80bef08
0xffffa80bef98
[CIRCULAR_BUFFER] enqueue ip: 0xffffa80befc0 index: 4
0xffffa80bf078
0xffffa80bf080
0xffffa80bef08
0xffffa80bef98
0xffffa80befc0
[CIRCULAR_BUFFER] enqueue ip: 0xffffa83ad880 index: 0
0xffffa83ad880
[CIRCULAR_BUFFER] enqueue ip: 0xffffa83ad8a4 index: 1
0xffffa83ad880
0xffffa83ad8a4
[CIRCULAR_BUFFER] enqueue ip: 0xffffa8340c40 index: 0
0xffffa8340c40
[CIRCULAR_BUFFER] enqueue ip: 0xffffa8340c60 index: 0
0xffffa8340c60
[CIRCULAR_BUFFER] enqueue ip: 0xffffa83d8040 index: 0
0xffffa83d8040
[CIRCULAR_BUFFER] enqueue ip: 0xffffa8389100 index: 1
0xffffa83d8040
0xffffa8389100
[CIRCULAR_BUFFER] enqueue ip: 0xffffa8389140 index: 2
0xffffa83d8040
0xffffa8389100
0xffffa8389140
[CIRCULAR_BUFFER] enqueue ip: 0xffffa8389148 index: 3
0xffffa83d8040
0xffffa8389100
0xffffa8389140
0xffffa8389148
[CIRCULAR_BUFFER] enqueue ip: 0xffffa83db3c0 index: 0
0xffffa83db3c0
[CIRCULAR_BUFFER] enqueue ip: 0xffffa83db3d0 index: 1
0xffffa83db3c0
0xffffa83db3d0
[CIRCULAR_BUFFER] enqueue ip: 0xffffa83db400 index: 2
0xffffa83db3c0
0xffffa83db3d0
0xffffa83db400
[CIRCULAR_BUFFER] enqueue ip: 0xffffa83db408 index: 3
0xffffa83db3c0
0xffffa83db3d0
0xffffa83db400
0xffffa83db408
[CIRCULAR_BUFFER] enqueue ip: 0xffffa844e600 index: 0
0xffffa844e600
[CIRCULAR_BUFFER] enqueue ip: 0xffffa8456440 index: 0
0xffffa8456440
[CIRCULAR_BUFFER] enqueue ip: 0xffffa8456484 index: 1
0xffffa8456440
0xffffa8456484
[CIRCULAR_BUFFER] enqueue ip: 0xffffa84564c0 index: 2
0xffffa8456440
0xffffa8456484
0xffffa84564c0
[CIRCULAR_BUFFER] enqueue ip: 0xffffa8456500 index: 3
0xffffa8456440
0xffffa8456484
0xffffa84564c0
0xffffa8456500
[CIRCULAR_BUFFER] enqueue ip: 0xffffa8456540 index: 4
0xffffa8456440
0xffffa8456484
0xffffa84564c0
0xffffa8456500
0xffffa8456540
[CIRCULAR_BUFFER] enqueue ip: 0xffffa845656c index: 5
0xffffa8456440
0xffffa8456484
0xffffa84564c0
0xffffa8456500
0xffffa8456540
0xffffa845656c
[CIRCULAR_BUFFER] enqueue ip: 0xffffa8456580 index: 6
0xffffa8456440
0xffffa8456484
0xffffa84564c0
0xffffa8456500
0xffffa8456540
0xffffa845656c
0xffffa8456580
[CIRCULAR_BUFFER] enqueue ip: 0xffffa8456588 index: 7
0xffffa8456440
0xffffa8456484
0xffffa84564c0
0xffffa8456500
0xffffa8456540
0xffffa845656c
0xffffa8456580
0xffffa8456588
[CIRCULAR_BUFFER] enqueue ip: 0xffffa84565c0 index: 8
0xffffa8456440
0xffffa8456484
0xffffa84564c0
0xffffa8456500
0xffffa8456540
0xffffa845656c
0xffffa8456580
0xffffa8456588
0xffffa84565c0
[CIRCULAR_BUFFER] enqueue ip: 0xffffa84565c8 index: 9
0xffffa8456440
0xffffa8456484
0xffffa84564c0
0xffffa8456500
0xffffa8456540
0xffffa845656c
0xffffa8456580
0xffffa8456588
0xffffa84565c0
0xffffa84565c8
[CIRCULAR_BUFFER] enqueue ip: 0xffffa844b800 index: 10
0xffffa8456440
0xffffa8456484
0xffffa84564c0
0xffffa8456500
0xffffa8456540
0xffffa845656c
0xffffa8456580
0xffffa8456588
0xffffa84565c0
0xffffa84565c8
0xffffa844b800
[CIRCULAR_BUFFER] enqueue ip: 0xffffa844b840 index: 11
0xffffa8456440
0xffffa8456484
0xffffa84564c0
0xffffa8456500
0xffffa8456540
0xffffa845656c
0xffffa8456580
0xffffa8456588
0xffffa84565c0
0xffffa84565c8
0xffffa844b800
0xffffa844b840
[CIRCULAR_BUFFER] enqueue ip: 0xffffa844b848 index: 12
0xffffa8456440
0xffffa8456484
0xffffa84564c0
0xffffa8456500
0xffffa8456540
0xffffa845656c
0xffffa8456580
0xffffa8456588
0xffffa84565c0
0xffffa84565c8
0xffffa844b800
0xffffa844b840
0xffffa844b848
[CIRCULAR_BUFFER] enqueue ip: 0xffffa844b880 index: 13
0xffffa8456440
0xffffa8456484
0xffffa84564c0
0xffffa8456500
0xffffa8456540
0xffffa845656c
0xffffa8456580
0xffffa8456588
0xffffa84565c0
0xffffa84565c8
0xffffa844b800
0xffffa844b840
0xffffa844b848
0xffffa844b880
[CIRCULAR_BUFFER] enqueue ip: 0xffffa844b888 index: 14
0xffffa8456440
0xffffa8456484
0xffffa84564c0
0xffffa8456500
0xffffa8456540
0xffffa845656c
0xffffa8456580
0xffffa8456588
0xffffa84565c0
0xffffa84565c8
0xffffa844b800
0xffffa844b840
0xffffa844b848
0xffffa844b880
0xffffa844b888
[CIRCULAR_BUFFER] enqueue ip: 0xffffa844b8cc index: 15
0xffffa8456440
0xffffa8456484
0xffffa84564c0
0xffffa8456500
0xffffa8456540
0xffffa845656c
0xffffa8456580
0xffffa8456588
0xffffa84565c0
0xffffa84565c8
0xffffa844b800
0xffffa844b840
0xffffa844b848
0xffffa844b880
0xffffa844b888
0xffffa844b8cc
[CIRCULAR_BUFFER] enqueue ip: 0xffffa844b900 index: 16
0xffffa8456440
0xffffa8456484
0xffffa84564c0
0xffffa8456500
0xffffa8456540
0xffffa845656c
0xffffa8456580
0xffffa8456588
0xffffa84565c0
0xffffa84565c8
0xffffa844b800
0xffffa844b840
0xffffa844b848
0xffffa844b880
0xffffa844b888
0xffffa844b8cc
0xffffa844b900
[CIRCULAR_BUFFER] enqueue ip: 0xffffa844b92c index: 17
0xffffa8456440
0xffffa8456484
0xffffa84564c0
0xffffa8456500
0xffffa8456540
0xffffa845656c
0xffffa8456580
0xffffa8456588
0xffffa84565c0
0xffffa84565c8
0xffffa844b800
0xffffa844b840
0xffffa844b848
0xffffa844b880
0xffffa844b888
0xffffa844b8cc
0xffffa844b900
0xffffa844b92c
[CIRCULAR_BUFFER] enqueue ip: 0xffffa844b940 index: 18
0xffffa8456440
0xffffa8456484
0xffffa84564c0
0xffffa8456500
0xffffa8456540
0xffffa845656c
0xffffa8456580
0xffffa8456588
0xffffa84565c0
0xffffa84565c8
0xffffa844b800
0xffffa844b840
0xffffa844b848
0xffffa844b880
0xffffa844b888
0xffffa844b8cc
0xffffa844b900
0xffffa844b92c
0xffffa844b940
[CIRCULAR_BUFFER] enqueue ip: 0xffffa844b948 index: 19
0xffffa8456440
0xffffa8456484
0xffffa84564c0
0xffffa8456500
0xffffa8456540
0xffffa845656c
0xffffa8456580
0xffffa8456588
0xffffa84565c0
0xffffa84565c8
0xffffa844b800
0xffffa844b840
0xffffa844b848
0xffffa844b880
0xffffa844b888
0xffffa844b8cc
0xffffa844b900
0xffffa844b92c
0xffffa844b940
0xffffa844b948
[CIRCULAR_BUFFER] enqueue ip: 0xffffa844b980 index: 20
0xffffa8456440
0xffffa8456484
0xffffa84564c0
0xffffa8456500
0xffffa8456540
0xffffa845656c
0xffffa8456580
0xffffa8456588
0xffffa84565c0
0xffffa84565c8
0xffffa844b800
0xffffa844b840
0xffffa844b848
0xffffa844b880
0xffffa844b888
0xffffa844b8cc
0xffffa844b900
0xffffa844b92c
0xffffa844b940
0xffffa844b948
0xffffa844b980
[CIRCULAR_BUFFER] enqueue ip: 0xffffa844b988 index: 21
0xffffa8456440
0xffffa8456484
0xffffa84564c0
0xffffa8456500
0xffffa8456540
0xffffa845656c
0xffffa8456580
0xffffa8456588
0xffffa84565c0
0xffffa84565c8
0xffffa844b800
0xffffa844b840
0xffffa844b848
0xffffa844b880
0xffffa844b888
0xffffa844b8cc
0xffffa844b900
0xffffa844b92c
0xffffa844b940
0xffffa844b948
0xffffa844b980
0xffffa844b988
[CIRCULAR_BUFFER] enqueue ip: 0xffffa844b9c0 index: 22
0xffffa8456440
0xffffa8456484
0xffffa84564c0
0xffffa8456500
0xffffa8456540
0xffffa845656c
0xffffa8456580
0xffffa8456588
0xffffa84565c0
0xffffa84565c8
0xffffa844b800
0xffffa844b840
0xffffa844b848
0xffffa844b880
0xffffa844b888
0xffffa844b8cc
0xffffa844b900
0xffffa844b92c
0xffffa844b940
0xffffa844b948
0xffffa844b980
0xffffa844b988
0xffffa844b9c0
[CIRCULAR_BUFFER] enqueue ip: 0xffffa844b9c8 index: 23
0xffffa8456440
0xffffa8456484
0xffffa84564c0
0xffffa8456500
0xffffa8456540
0xffffa845656c
0xffffa8456580
0xffffa8456588
0xffffa84565c0
0xffffa84565c8
0xffffa844b800
0xffffa844b840
0xffffa844b848
0xffffa844b880
0xffffa844b888
0xffffa844b8cc
0xffffa844b900
0xffffa844b92c
0xffffa844b940
0xffffa844b948
0xffffa844b980
0xffffa844b988
0xffffa844b9c0
0xffffa844b9c8
[CIRCULAR_BUFFER] enqueue ip: 0xffffa844ba00 index: 24
0xffffa8456440
0xffffa8456484
0xffffa84564c0
0xffffa8456500
0xffffa8456540
0xffffa845656c
0xffffa8456580
0xffffa8456588
0xffffa84565c0
0xffffa84565c8
0xffffa844b800
0xffffa844b840
0xffffa844b848
0xffffa844b880
0xffffa844b888
0xffffa844b8cc
0xffffa844b900
0xffffa844b92c
0xffffa844b940
0xffffa844b948
0xffffa844b980
0xffffa844b988
0xffffa844b9c0
0xffffa844b9c8
0xffffa844ba00
[CIRCULAR_BUFFER] enqueue ip: 0xffffa844ba08 index: 25
0xffffa8456440
0xffffa8456484
0xffffa84564c0
0xffffa8456500
0xffffa8456540
0xffffa845656c
0xffffa8456580
0xffffa8456588
0xffffa84565c0
0xffffa84565c8
0xffffa844b800
0xffffa844b840
0xffffa844b848
0xffffa844b880
0xffffa844b888
0xffffa844b8cc
0xffffa844b900
0xffffa844b92c
0xffffa844b940
0xffffa844b948
0xffffa844b980
0xffffa844b988
0xffffa844b9c0
0xffffa844b9c8
0xffffa844ba00
0xffffa844ba08
[CIRCULAR_BUFFER] enqueue ip: 0xffffa844ba40 index: 26
0xffffa8456440
0xffffa8456484
0xffffa84564c0
0xffffa8456500
0xffffa8456540
0xffffa845656c
0xffffa8456580
0xffffa8456588
0xffffa84565c0
0xffffa84565c8
0xffffa844b800
0xffffa844b840
0xffffa844b848
0xffffa844b880
0xffffa844b888
0xffffa844b8cc
0xffffa844b900
0xffffa844b92c
0xffffa844b940
0xffffa844b948
0xffffa844b980
0xffffa844b988
0xffffa844b9c0
0xffffa844b9c8
0xffffa844ba00
0xffffa844ba08
0xffffa844ba40
[CIRCULAR_BUFFER] enqueue ip: 0xffffa844ba48 index: 27
0xffffa8456440
0xffffa8456484
0xffffa84564c0
0xffffa8456500
0xffffa8456540
0xffffa845656c
0xffffa8456580
0xffffa8456588
0xffffa84565c0
0xffffa84565c8
0xffffa844b800
0xffffa844b840
0xffffa844b848
0xffffa844b880
0xffffa844b888
0xffffa844b8cc
0xffffa844b900
0xffffa844b92c
0xffffa844b940
0xffffa844b948
0xffffa844b980
0xffffa844b988
0xffffa844b9c0
0xffffa844b9c8
0xffffa844ba00
0xffffa844ba08
0xffffa844ba40
0xffffa844ba48
[CIRCULAR_BUFFER] enqueue ip: 0xffffa844ba80 index: 28
0xffffa8456440
0xffffa8456484
0xffffa84564c0
0xffffa8456500
0xffffa8456540
0xffffa845656c
0xffffa8456580
0xffffa8456588
0xffffa84565c0
0xffffa84565c8
0xffffa844b800
0xffffa844b840
0xffffa844b848
0xffffa844b880
0xffffa844b888
0xffffa844b8cc
0xffffa844b900
0xffffa844b92c
0xffffa844b940
0xffffa844b948
0xffffa844b980
0xffffa844b988
0xffffa844b9c0
0xffffa844b9c8
0xffffa844ba00
0xffffa844ba08
0xffffa844ba40
0xffffa844ba48
0xffffa844ba80
[CIRCULAR_BUFFER] enqueue ip: 0xffffa844ba88 index: 29
0xffffa8456440
0xffffa8456484
0xffffa84564c0
0xffffa8456500
0xffffa8456540
0xffffa845656c
0xffffa8456580
0xffffa8456588
0xffffa84565c0
0xffffa84565c8
0xffffa844b800
0xffffa844b840
0xffffa844b848
0xffffa844b880
0xffffa844b888
0xffffa844b8cc
0xffffa844b900
0xffffa844b92c
0xffffa844b940
0xffffa844b948
0xffffa844b980
0xffffa844b988
0xffffa844b9c0
0xffffa844b9c8
0xffffa844ba00
0xffffa844ba08
0xffffa844ba40
0xffffa844ba48
0xffffa844ba80
0xffffa844ba88
[CIRCULAR_BUFFER] enqueue ip: 0xffffa844bac8 index: 30
0xffffa8456440
0xffffa8456484
0xffffa84564c0
0xffffa8456500
0xffffa8456540
0xffffa845656c
0xffffa8456580
0xffffa8456588
0xffffa84565c0
0xffffa84565c8
0xffffa844b800
0xffffa844b840
0xffffa844b848
0xffffa844b880
0xffffa844b888
0xffffa844b8cc
0xffffa844b900
0xffffa844b92c
0xffffa844b940
0xffffa844b948
0xffffa844b980
0xffffa844b988
0xffffa844b9c0
0xffffa844b9c8
0xffffa844ba00
0xffffa844ba08
0xffffa844ba40
0xffffa844ba48
0xffffa844ba80
0xffffa844ba88
0xffffa844bac8
[CIRCULAR_BUFFER] enqueue ip: 0xffffa844bb00 index: 31
0xffffa8456440
0xffffa8456484
0xffffa84564c0
0xffffa8456500
0xffffa8456540
0xffffa845656c
0xffffa8456580
0xffffa8456588
0xffffa84565c0
0xffffa84565c8
0xffffa844b800
0xffffa844b840
0xffffa844b848
0xffffa844b880
0xffffa844b888
0xffffa844b8cc
0xffffa844b900
0xffffa844b92c
0xffffa844b940
0xffffa844b948
0xffffa844b980
0xffffa844b988
0xffffa844b9c0
0xffffa844b9c8
0xffffa844ba00
0xffffa844ba08
0xffffa844ba40
0xffffa844ba48
0xffffa844ba80
0xffffa844ba88
0xffffa844bac8
0xffffa844bb00
[CIRCULAR_BUFFER] enqueue ip: 0xffffa844bb40 index: 32
0xffffa8456440
0xffffa8456484
0xffffa84564c0
0xffffa8456500
0xffffa8456540
0xffffa845656c
0xffffa8456580
0xffffa8456588
0xffffa84565c0
0xffffa84565c8
0xffffa844b800
0xffffa844b840
0xffffa844b848
0xffffa844b880
0xffffa844b888
0xffffa844b8cc
0xffffa844b900
0xffffa844b92c
0xffffa844b940
0xffffa844b948
0xffffa844b980
0xffffa844b988
0xffffa844b9c0
0xffffa844b9c8
0xffffa844ba00
0xffffa844ba08
0xffffa844ba40
0xffffa844ba48
0xffffa844ba80
0xffffa844ba88
0xffffa844bac8
0xffffa844bb00
0xffffa844bb40
[CIRCULAR_BUFFER] enqueue ip: 0xffffa844bb80 index: 33
0xffffa8456440
0xffffa8456484
0xffffa84564c0
0xffffa8456500
0xffffa8456540
0xffffa845656c
0xffffa8456580
0xffffa8456588
0xffffa84565c0
0xffffa84565c8
0xffffa844b800
0xffffa844b840
0xffffa844b848
0xffffa844b880
0xffffa844b888
0xffffa844b8cc
0xffffa844b900
0xffffa844b92c
0xffffa844b940
0xffffa844b948
0xffffa844b980
0xffffa844b988
0xffffa844b9c0
0xffffa844b9c8
0xffffa844ba00
0xffffa844ba08
0xffffa844ba40
0xffffa844ba48
0xffffa844ba80
0xffffa844ba88
0xffffa844bac8
0xffffa844bb00
0xffffa844bb40
0xffffa844bb80
[CIRCULAR_BUFFER] enqueue ip: 0xffffa844bba0 index: 34
0xffffa8456440
0xffffa8456484
0xffffa84564c0
0xffffa8456500
0xffffa8456540
0xffffa845656c
0xffffa8456580
0xffffa8456588
0xffffa84565c0
0xffffa84565c8
0xffffa844b800
0xffffa844b840
0xffffa844b848
0xffffa844b880
0xffffa844b888
0xffffa844b8cc
0xffffa844b900
0xffffa844b92c
0xffffa844b940
0xffffa844b948
0xffffa844b980
0xffffa844b988
0xffffa844b9c0
0xffffa844b9c8
0xffffa844ba00
0xffffa844ba08
0xffffa844ba40
0xffffa844ba48
0xffffa844ba80
0xffffa844ba88
0xffffa844bac8
0xffffa844bb00
0xffffa844bb40
0xffffa844bb80
0xffffa844bba0
[CIRCULAR_BUFFER] enqueue ip: 0xffffa844bc28 index: 35
0xffffa8456440
0xffffa8456484
0xffffa84564c0
0xffffa8456500
0xffffa8456540
0xffffa845656c
0xffffa8456580
0xffffa8456588
0xffffa84565c0
0xffffa84565c8
0xffffa844b800
0xffffa844b840
0xffffa844b848
0xffffa844b880
0xffffa844b888
0xffffa844b8cc
0xffffa844b900
0xffffa844b92c
0xffffa844b940
0xffffa844b948
0xffffa844b980
0xffffa844b988
0xffffa844b9c0
0xffffa844b9c8
0xffffa844ba00
0xffffa844ba08
0xffffa844ba40
0xffffa844ba48
0xffffa844ba80
0xffffa844ba88
0xffffa844bac8
0xffffa844bb00
0xffffa844bb40
0xffffa844bb80
0xffffa844bba0
0xffffa844bc28
[CIRCULAR_BUFFER] enqueue ip: 0xffffa844bc40 index: 36
0xffffa8456440
0xffffa8456484
0xffffa84564c0
0xffffa8456500
0xffffa8456540
0xffffa845656c
0xffffa8456580
0xffffa8456588
0xffffa84565c0
0xffffa84565c8
0xffffa844b800
0xffffa844b840
0xffffa844b848
0xffffa844b880
0xffffa844b888
0xffffa844b8cc
0xffffa844b900
0xffffa844b92c
0xffffa844b940
0xffffa844b948
0xffffa844b980
0xffffa844b988
0xffffa844b9c0
0xffffa844b9c8
0xffffa844ba00
0xffffa844ba08
0xffffa844ba40
0xffffa844ba48
0xffffa844ba80
0xffffa844ba88
0xffffa844bac8
0xffffa844bb00
0xffffa844bb40
0xffffa844bb80
0xffffa844bba0
0xffffa844bc28
0xffffa844bc40
[CIRCULAR_BUFFER] enqueue ip: 0xffffa83dcf50 index: 0
0xffffa83dcf50
[CIRCULAR_BUFFER] enqueue ip: 0xffffa83dcf80 index: 1
0xffffa83dcf50
0xffffa83dcf80
[CIRCULAR_BUFFER] enqueue ip: 0xffffa844bc80 index: 0
0xffffa844bc80
[CIRCULAR_BUFFER] enqueue ip: 0xffffa844bce4 index: 0
0xffffa844bce4
[CIRCULAR_BUFFER] enqueue ip: 0xffffa844bd00 index: 1
0xffffa844bce4
0xffffa844bd00
[CIRCULAR_BUFFER] enqueue ip: 0xffffa8456600 index: 2
0xffffa844bce4
0xffffa844bd00
0xffffa8456600
[CIRCULAR_BUFFER] enqueue ip: 0xffffa8456614 index: 3
0xffffa844bce4
0xffffa844bd00
0xffffa8456600
0xffffa8456614
[CIRCULAR_BUFFER] enqueue ip: 0xffffa844de7c index: 0
0xffffa844de7c
[CIRCULAR_BUFFER] enqueue ip: 0xffffa844de80 index: 1
0xffffa844de7c
0xffffa844de80
[CIRCULAR_BUFFER] enqueue ip: 0xffffa844e1b0 index: 0
0xffffa844e1b0
[CIRCULAR_BUFFER] enqueue ip: 0xffffa844e1c0 index: 1
0xffffa844e1b0
0xffffa844e1c0
[CIRCULAR_BUFFER] enqueue ip: 0xffffa8447d00 index: 2
0xffffa844e1b0
0xffffa844e1c0
0xffffa8447d00
[CIRCULAR_BUFFER] enqueue ip: 0xffffa8447d40 index: 3
0xffffa844e1b0
0xffffa844e1c0
0xffffa8447d00
0xffffa8447d40
[CIRCULAR_BUFFER] enqueue ip: 0xffffa8447d48 index: 4
0xffffa844e1b0
0xffffa844e1c0
0xffffa8447d00
0xffffa8447d40
0xffffa8447d48
[CIRCULAR_BUFFER] enqueue ip: 0xffffa8447d80 index: 5
0xffffa844e1b0
0xffffa844e1c0
0xffffa8447d00
0xffffa8447d40
0xffffa8447d48
0xffffa8447d80
[CIRCULAR_BUFFER] enqueue ip: 0xffffa8447d88 index: 6
0xffffa844e1b0
0xffffa844e1c0
0xffffa8447d00
0xffffa8447d40
0xffffa8447d48
0xffffa8447d80
0xffffa8447d88
[CIRCULAR_BUFFER] enqueue ip: 0xffffa8447dc0 index: 0
0xffffa8447dc0
[CIRCULAR_BUFFER] enqueue ip: 0xffffa8447e00 index: 0
0xffffa8447e00
[CIRCULAR_BUFFER] enqueue ip: 0xffffa8447ef8 index: 1
0xffffa8447e00
0xffffa8447ef8
[CIRCULAR_BUFFER] enqueue ip: 0xffffa8447f00 index: 2
0xffffa8447e00
0xffffa8447ef8
0xffffa8447f00
[CIRCULAR_BUFFER] enqueue ip: 0xffffa8447f40 index: 3
0xffffa8447e00
0xffffa8447ef8
0xffffa8447f00
0xffffa8447f40
[CIRCULAR_BUFFER] enqueue ip: 0xffffa83be910 index: 0
0xffffa83be910
[CIRCULAR_BUFFER] enqueue ip: 0xffffa83be940 index: 1
0xffffa83be910
0xffffa83be940
[CIRCULAR_BUFFER] enqueue ip: 0xffffa83be980 index: 2
0xffffa83be910
0xffffa83be940
0xffffa83be980
[CIRCULAR_BUFFER] enqueue ip: 0xffffa83be988 index: 3
0xffffa83be910
0xffffa83be940
0xffffa83be980
0xffffa83be988
[CIRCULAR_BUFFER] enqueue ip: 0xffffa83be9c0 index: 4
0xffffa83be910
0xffffa83be940
0xffffa83be980
0xffffa83be988
0xffffa83be9c0
[CIRCULAR_BUFFER] enqueue ip: 0xffffa83be9c8 index: 5
0xffffa83be910
0xffffa83be940
0xffffa83be980
0xffffa83be988
0xffffa83be9c0
0xffffa83be9c8
[CIRCULAR_BUFFER] enqueue ip: 0xffffa83bea00 index: 0
0xffffa83bea00
[CIRCULAR_BUFFER] enqueue ip: 0xffffa83bea2c index: 1
0xffffa83bea00
0xffffa83bea2c
[CIRCULAR_BUFFER] enqueue ip: 0xffffa83bea40 index: 2
0xffffa83bea00
0xffffa83bea2c
0xffffa83bea40
[CIRCULAR_BUFFER] enqueue ip: 0xffffa83bea48 index: 3
0xffffa83bea00
0xffffa83bea2c
0xffffa83bea40
0xffffa83bea48
[CIRCULAR_BUFFER] enqueue ip: 0xffffa8447f80 index: 0
0xffffa8447f80
[CIRCULAR_BUFFER] enqueue ip: 0xffffa8341950 index: 1
0xffffa8447f80
0xffffa8341950
[CIRCULAR_BUFFER] enqueue ip: 0xffffa8341980 index: 2
0xffffa8447f80
0xffffa8341950
0xffffa8341980
[CIRCULAR_BUFFER] enqueue ip: 0xffffa83419c0 index: 3
0xffffa8447f80
0xffffa8341950
0xffffa8341980
0xffffa83419c0
[CIRCULAR_BUFFER] enqueue ip: 0xffffa83419c8 index: 4
0xffffa8447f80
0xffffa8341950
0xffffa8341980
0xffffa83419c0
0xffffa83419c8
[CIRCULAR_BUFFER] enqueue ip: 0xffffa8341a00 index: 5
0xffffa8447f80
0xffffa8341950
0xffffa8341980
0xffffa83419c0
0xffffa83419c8
0xffffa8341a00
[CIRCULAR_BUFFER] enqueue ip: 0xffffa8341a08 index: 6
0xffffa8447f80
0xffffa8341950
0xffffa8341980
0xffffa83419c0
0xffffa83419c8
0xffffa8341a00
0xffffa8341a08
[CIRCULAR_BUFFER] enqueue ip: 0xffffa8341c44 index: 7
0xffffa8447f80
0xffffa8341950
0xffffa8341980
0xffffa83419c0
0xffffa83419c8
0xffffa8341a00
0xffffa8341a08
0xffffa8341c44
[CIRCULAR_BUFFER] enqueue ip: 0xffffa8341c5c index: 8
0xffffa8447f80
0xffffa8341950
0xffffa8341980
0xffffa83419c0
0xffffa83419c8
0xffffa8341a00
0xffffa8341a08
0xffffa8341c44
0xffffa8341c5c
[CIRCULAR_BUFFER] enqueue ip: 0xffffa8341c80 index: 9
0xffffa8447f80
0xffffa8341950
0xffffa8341980
0xffffa83419c0
0xffffa83419c8
0xffffa8341a00
0xffffa8341a08
0xffffa8341c44
0xffffa8341c5c
0xffffa8341c80
[CIRCULAR_BUFFER] enqueue ip: 0xffffa8341c8c index: 10
0xffffa8447f80
0xffffa8341950
0xffffa8341980
0xffffa83419c0
0xffffa83419c8
0xffffa8341a00
0xffffa8341a08
0xffffa8341c44
0xffffa8341c5c
0xffffa8341c80
0xffffa8341c8c
[CIRCULAR_BUFFER] enqueue ip: 0xffffa8341a40 index: 11
0xffffa8447f80
0xffffa8341950
0xffffa8341980
0xffffa83419c0
0xffffa83419c8
0xffffa8341a00
0xffffa8341a08
0xffffa8341c44
0xffffa8341c5c
0xffffa8341c80
0xffffa8341c8c
0xffffa8341a40
[CIRCULAR_BUFFER] enqueue ip: 0xffffa8341a80 index: 0
0xffffa8341a80
[CIRCULAR_BUFFER] enqueue ip: 0xffffa8341aa8 index: 1
0xffffa8341a80
0xffffa8341aa8
[CIRCULAR_BUFFER] enqueue ip: 0xffffa8341aec index: 2
0xffffa8341a80
0xffffa8341aa8
0xffffa8341aec
[CIRCULAR_BUFFER] enqueue ip: 0xffffa8341c34 index: 3
0xffffa8341a80
0xffffa8341aa8
0xffffa8341aec
0xffffa8341c34
[CIRCULAR_BUFFER] enqueue ip: 0xffffa8319310 index: 0
0xffffa8319310
[CIRCULAR_BUFFER] enqueue ip: 0xffffa8319340 index: 1
0xffffa8319310
0xffffa8319340
[CIRCULAR_BUFFER] enqueue ip: 0xffffa8319380 index: 2
0xffffa8319310
0xffffa8319340
0xffffa8319380
[CIRCULAR_BUFFER] enqueue ip: 0xffffa8319388 index: 3
0xffffa8319310
0xffffa8319340
0xffffa8319380
0xffffa8319388
[CIRCULAR_BUFFER] enqueue ip: 0xffffa83193c0 index: 4
0xffffa8319310
0xffffa8319340
0xffffa8319380
0xffffa8319388
0xffffa83193c0
[CIRCULAR_BUFFER] enqueue ip: 0xffffa83193ec index: 5
0xffffa8319310
0xffffa8319340
0xffffa8319380
0xffffa8319388
0xffffa83193c0
0xffffa83193ec
[CIRCULAR_BUFFER] enqueue ip: 0xffffa83194bc index: 6
0xffffa8319310
0xffffa8319340
0xffffa8319380
0xffffa8319388
0xffffa83193c0
0xffffa83193ec
0xffffa83194bc
[CIRCULAR_BUFFER] enqueue ip: 0xffffa83194c0 index: 7
0xffffa8319310
0xffffa8319340
0xffffa8319380
0xffffa8319388
0xffffa83193c0
0xffffa83193ec
0xffffa83194bc
0xffffa83194c0
[CIRCULAR_BUFFER] enqueue ip: 0xffffa83194ec index: 8
0xffffa8319310
0xffffa8319340
0xffffa8319380
0xffffa8319388
0xffffa83193c0
0xffffa83193ec
0xffffa83194bc
0xffffa83194c0
0xffffa83194ec
[CIRCULAR_BUFFER] enqueue ip: 0xffffa81e5c50 index: 0
0xffffa81e5c50
[CIRCULAR_BUFFER] enqueue ip: 0xffffa81e5d74 index: 0
0xffffa81e5d74
[CIRCULAR_BUFFER] enqueue ip: 0xffffa81e5d80 index: 1
0xffffa81e5d74
0xffffa81e5d80
[CIRCULAR_BUFFER] enqueue ip: 0xffffa8319500 index: 2
0xffffa81e5d74
0xffffa81e5d80
0xffffa8319500
[CIRCULAR_BUFFER] enqueue ip: 0xffffa8319528 index: 3
0xffffa81e5d74
0xffffa81e5d80
0xffffa8319500
0xffffa8319528
[CIRCULAR_BUFFER] enqueue ip: 0xffffa8319540 index: 4
0xffffa81e5d74
0xffffa81e5d80
0xffffa8319500
0xffffa8319528
0xffffa8319540
[CIRCULAR_BUFFER] enqueue ip: 0xffffa8319548 index: 0
0xffffa8319548
[CIRCULAR_BUFFER] enqueue ip: 0xffffa80bf610 index: 1
0xffffa8319548
0xffffa80bf610
[CIRCULAR_BUFFER] enqueue ip: 0xffffa80bf4c8 index: 2
0xffffa8319548
0xffffa80bf610
0xffffa80bf4c8
[CIRCULAR_BUFFER] enqueue ip: 0xffffa80bf518 index: 3
0xffffa8319548
0xffffa80bf610
0xffffa80bf4c8
0xffffa80bf518
[CIRCULAR_BUFFER] enqueue ip: 0xffffa8319580 index: 0
0xffffa8319580
[CIRCULAR_BUFFER] enqueue ip: 0xffffa8319584 index: 1
0xffffa8319580
0xffffa8319584
[CIRCULAR_BUFFER] enqueue ip: 0xffffa8341b00 index: 2
0xffffa8319580
0xffffa8319584
0xffffa8341b00
[CIRCULAR_BUFFER] enqueue ip: 0xffffa8341b0c index: 3
0xffffa8319580
0xffffa8319584
0xffffa8341b00
0xffffa8341b0c
[CIRCULAR_BUFFER] enqueue ip: 0xffffa8341b40 index: 4
0xffffa8319580
0xffffa8319584
0xffffa8341b00
0xffffa8341b0c
0xffffa8341b40
[CIRCULAR_BUFFER] enqueue ip: 0xffffa8341b48 index: 5
0xffffa8319580
0xffffa8319584
0xffffa8341b00
0xffffa8341b0c
0xffffa8341b40
0xffffa8341b48
[CIRCULAR_BUFFER] enqueue ip: 0xffffa8341b80 index: 6
0xffffa8319580
0xffffa8319584
0xffffa8341b00
0xffffa8341b0c
0xffffa8341b40
0xffffa8341b48
0xffffa8341b80
[CIRCULAR_BUFFER] enqueue ip: 0xffffa8341b88 index: 7
0xffffa8319580
0xffffa8319584
0xffffa8341b00
0xffffa8341b0c
0xffffa8341b40
0xffffa8341b48
0xffffa8341b80
0xffffa8341b88
[CIRCULAR_BUFFER] enqueue ip: 0xffffa8341bc0 index: 8
0xffffa8319580
0xffffa8319584
0xffffa8341b00
0xffffa8341b0c
0xffffa8341b40
0xffffa8341b48
0xffffa8341b80
0xffffa8341b88
0xffffa8341bc0
[CIRCULAR_BUFFER] enqueue ip: 0xffffa8341bc8 index: 9
0xffffa8319580
0xffffa8319584
0xffffa8341b00
0xffffa8341b0c
0xffffa8341b40
0xffffa8341b48
0xffffa8341b80
0xffffa8341b88
0xffffa8341bc0
0xffffa8341bc8
[CIRCULAR_BUFFER] enqueue ip: 0xffffa80bfec0 index: 10
0xffffa8319580
0xffffa8319584
0xffffa8341b00
0xffffa8341b0c
0xffffa8341b40
0xffffa8341b48
0xffffa8341b80
0xffffa8341b88
0xffffa8341bc0
0xffffa8341bc8
0xffffa80bfec0
[CIRCULAR_BUFFER] enqueue ip: 0xffffa80bff18 index: 11
0xffffa8319580
0xffffa8319584
0xffffa8341b00
0xffffa8341b0c
0xffffa8341b40
0xffffa8341b48
0xffffa8341b80
0xffffa8341b88
0xffffa8341bc0
0xffffa8341bc8
0xffffa80bfec0
0xffffa80bff18
[CIRCULAR_BUFFER] enqueue ip: 0xffffa80bff98 index: 0
0xffffa80bff98
[CIRCULAR_BUFFER] enqueue ip: 0xffffa8447fc0 index: 0
0xffffa8447fc0
[CIRCULAR_BUFFER] enqueue ip: 0xffffa8447fd4 index: 1
0xffffa8447fc0
0xffffa8447fd4
[CIRCULAR_BUFFER] enqueue ip: 0xffffa844801c index: 2
0xffffa8447fc0
0xffffa8447fd4
0xffffa844801c
[CIRCULAR_BUFFER] enqueue ip: 0xffffa8448040 index: 3
0xffffa8447fc0
0xffffa8447fd4
0xffffa844801c
0xffffa8448040
[CIRCULAR_BUFFER] enqueue ip: 0xffffa842bbc0 index: 4
0xffffa8447fc0
0xffffa8447fd4
0xffffa844801c
0xffffa8448040
0xffffa842bbc0
[CIRCULAR_BUFFER] enqueue ip: 0xffffa842bc00 index: 5
0xffffa8447fc0
0xffffa8447fd4
0xffffa844801c
0xffffa8448040
0xffffa842bbc0
0xffffa842bc00
[CIRCULAR_BUFFER] enqueue ip: 0xffffa842bc08 index: 6
0xffffa8447fc0
0xffffa8447fd4
0xffffa844801c
0xffffa8448040
0xffffa842bbc0
0xffffa842bc00
0xffffa842bc08
[CIRCULAR_BUFFER] enqueue ip: 0xffffa842bc74 index: 7
0xffffa8447fc0
0xffffa8447fd4
0xffffa844801c
0xffffa8448040
0xffffa842bbc0
0xffffa842bc00
0xffffa842bc08
0xffffa842bc74
[CIRCULAR_BUFFER] enqueue ip: 0xffffa842bc80 index: 8
0xffffa8447fc0
0xffffa8447fd4
0xffffa844801c
0xffffa8448040
0xffffa842bbc0
0xffffa842bc00
0xffffa842bc08
0xffffa842bc74
0xffffa842bc80
[CIRCULAR_BUFFER] enqueue ip: 0xffffa842bca4 index: 9
0xffffa8447fc0
0xffffa8447fd4
0xffffa844801c
0xffffa8448040
0xffffa842bbc0
0xffffa842bc00
0xffffa842bc08
0xffffa842bc74
0xffffa842bc80
0xffffa842bca4
[CIRCULAR_BUFFER] enqueue ip: 0xffffa842bccc index: 10
0xffffa8447fc0
0xffffa8447fd4
0xffffa844801c
0xffffa8448040
0xffffa842bbc0
0xffffa842bc00
0xffffa842bc08
0xffffa842bc74
0xffffa842bc80
0xffffa842bca4
0xffffa842bccc
[CIRCULAR_BUFFER] enqueue ip: 0xffffa842bd10 index: 11
0xffffa8447fc0
0xffffa8447fd4
0xffffa844801c
0xffffa8448040
0xffffa842bbc0
0xffffa842bc00
0xffffa842bc08
0xffffa842bc74
0xffffa842bc80
0xffffa842bca4
0xffffa842bccc
0xffffa842bd10
[CIRCULAR_BUFFER] enqueue ip: 0xffffa842bd40 index: 12
0xffffa8447fc0
0xffffa8447fd4
0xffffa844801c
0xffffa8448040
0xffffa842bbc0
0xffffa842bc00
0xffffa842bc08
0xffffa842bc74
0xffffa842bc80
0xffffa842bca4
0xffffa842bccc
0xffffa842bd10
0xffffa842bd40
[CIRCULAR_BUFFER] enqueue ip: 0xffffa842bdc8 index: 13
0xffffa8447fc0
0xffffa8447fd4
0xffffa844801c
0xffffa8448040
0xffffa842bbc0
0xffffa842bc00
0xffffa842bc08
0xffffa842bc74
0xffffa842bc80
0xffffa842bca4
0xffffa842bccc
0xffffa842bd10
0xffffa842bd40
0xffffa842bdc8
[CIRCULAR_BUFFER] enqueue ip: 0xffffa835e150 index: 0
0xffffa835e150
[CIRCULAR_BUFFER] enqueue ip: 0xffffa835e180 index: 1
0xffffa835e150
0xffffa835e180
[CIRCULAR_BUFFER] enqueue ip: 0xffffa8448080 index: 0
0xffffa8448080
[CIRCULAR_BUFFER] enqueue ip: 0xffffa844e200 index: 1
0xffffa8448080
0xffffa844e200
[CIRCULAR_BUFFER] enqueue ip: 0xffffa82cc500 index: 2
0xffffa8448080
0xffffa844e200
0xffffa82cc500
[CIRCULAR_BUFFER] enqueue ip: 0xffffa82cc540 index: 3
0xffffa8448080
0xffffa844e200
0xffffa82cc500
0xffffa82cc540
[CIRCULAR_BUFFER] enqueue ip: 0xffffa82cc548 index: 4
0xffffa8448080
0xffffa844e200
0xffffa82cc500
0xffffa82cc540
0xffffa82cc548
[CIRCULAR_BUFFER] enqueue ip: 0xffffa82cc5d4 index: 5
0xffffa8448080
0xffffa844e200
0xffffa82cc500
0xffffa82cc540
0xffffa82cc548
0xffffa82cc5d4
[CIRCULAR_BUFFER] enqueue ip: 0xffffa844e240 index: 0
0xffffa844e240
[CIRCULAR_BUFFER] enqueue ip: 0xffffa844becc index: 0
0xffffa844becc
[CIRCULAR_BUFFER] enqueue ip: 0xffffa844e440 index: 0
0xffffa844e440
[CIRCULAR_BUFFER] enqueue ip: 0xffffa8467a50 index: 0
0xffffa8467a50
[CIRCULAR_BUFFER] enqueue ip: 0xffffa8467a80 index: 0
0xffffa8467a80
[CIRCULAR_BUFFER] enqueue ip: 0xffffa842fb50 index: 1
0xffffa8467a80
0xffffa842fb50
[CIRCULAR_BUFFER] enqueue ip: 0xffffa842fb80 index: 2
0xffffa8467a80
0xffffa842fb50
0xffffa842fb80
[CIRCULAR_BUFFER] enqueue ip: 0xffffa842fbc0 index: 3
0xffffa8467a80
0xffffa842fb50
0xffffa842fb80
0xffffa842fbc0
[CIRCULAR_BUFFER] enqueue ip: 0xffffa842fbc8 index: 4
0xffffa8467a80
0xffffa842fb50
0xffffa842fb80
0xffffa842fbc0
0xffffa842fbc8
[CIRCULAR_BUFFER] enqueue ip: 0xffffa842fc00 index: 5
0xffffa8467a80
0xffffa842fb50
0xffffa842fb80
0xffffa842fbc0
0xffffa842fbc8
0xffffa842fc00
[CIRCULAR_BUFFER] enqueue ip: 0xffffa842fc08 index: 6
0xffffa8467a80
0xffffa842fb50
0xffffa842fb80
0xffffa842fbc0
0xffffa842fbc8
0xffffa842fc00
0xffffa842fc08
[CIRCULAR_BUFFER] enqueue ip: 0xffffa842fd6c index: 0
0xffffa842fd6c
[CIRCULAR_BUFFER] enqueue ip: 0xffffa842fd80 index: 0
0xffffa842fd80
[CIRCULAR_BUFFER] enqueue ip: 0xffffa842fd9c index: 1
0xffffa842fd80
0xffffa842fd9c
[CIRCULAR_BUFFER] enqueue ip: 0xffffa842fdc0 index: 2
0xffffa842fd80
0xffffa842fd9c
0xffffa842fdc0
[CIRCULAR_BUFFER] enqueue ip: 0xffffa842fdc8 index: 3
0xffffa842fd80
0xffffa842fd9c
0xffffa842fdc0
0xffffa842fdc8
[CIRCULAR_BUFFER] enqueue ip: 0xffffa842fe00 index: 4
0xffffa842fd80
0xffffa842fd9c
0xffffa842fdc0
0xffffa842fdc8
0xffffa842fe00
[CIRCULAR_BUFFER] enqueue ip: 0xffffa842fe08 index: 5
0xffffa842fd80
0xffffa842fd9c
0xffffa842fdc0
0xffffa842fdc8
0xffffa842fe00
0xffffa842fe08
[CIRCULAR_BUFFER] enqueue ip: 0xffffa842fe40 index: 6
0xffffa842fd80
0xffffa842fd9c
0xffffa842fdc0
0xffffa842fdc8
0xffffa842fe00
0xffffa842fe08
0xffffa842fe40
[CIRCULAR_BUFFER] enqueue ip: 0xffffa842fe48 index: 7
0xffffa842fd80
0xffffa842fd9c
0xffffa842fdc0
0xffffa842fdc8
0xffffa842fe00
0xffffa842fe08
0xffffa842fe40
0xffffa842fe48
[CIRCULAR_BUFFER] enqueue ip: 0xffffa842fe80 index: 8
0xffffa842fd80
0xffffa842fd9c
0xffffa842fdc0
0xffffa842fdc8
0xffffa842fe00
0xffffa842fe08
0xffffa842fe40
0xffffa842fe48
0xffffa842fe80
[CIRCULAR_BUFFER] enqueue ip: 0xffffa842fe88 index: 9
0xffffa842fd80
0xffffa842fd9c
0xffffa842fdc0
0xffffa842fdc8
0xffffa842fe00
0xffffa842fe08
0xffffa842fe40
0xffffa842fe48
0xffffa842fe80
0xffffa842fe88
[CIRCULAR_BUFFER] enqueue ip: 0xffffa842fec0 index: 10
0xffffa842fd80
0xffffa842fd9c
0xffffa842fdc0
0xffffa842fdc8
0xffffa842fe00
0xffffa842fe08
0xffffa842fe40
0xffffa842fe48
0xffffa842fe80
0xffffa842fe88
0xffffa842fec0
[CIRCULAR_BUFFER] enqueue ip: 0xffffa842fec8 index: 11
0xffffa842fd80
0xffffa842fd9c
0xffffa842fdc0
0xffffa842fdc8
0xffffa842fe00
0xffffa842fe08
0xffffa842fe40
0xffffa842fe48
0xffffa842fe80
0xffffa842fe88
0xffffa842fec0
0xffffa842fec8
[CIRCULAR_BUFFER] enqueue ip: 0xffffa83e42d0 index: 0
0xffffa83e42d0
[CIRCULAR_BUFFER] enqueue ip: 0xffffa83e4300 index: 1
0xffffa83e42d0
0xffffa83e4300
[CIRCULAR_BUFFER] enqueue ip: 0xffffa83e4340 index: 2
0xffffa83e42d0
0xffffa83e4300
0xffffa83e4340
[CIRCULAR_BUFFER] enqueue ip: 0xffffa83e4348 index: 3
0xffffa83e42d0
0xffffa83e4300
0xffffa83e4340
0xffffa83e4348
[CIRCULAR_BUFFER] enqueue ip: 0xffffa83e4380 index: 4
0xffffa83e42d0
0xffffa83e4300
0xffffa83e4340
0xffffa83e4348
0xffffa83e4380
[CIRCULAR_BUFFER] enqueue ip: 0xffffa83e4388 index: 5
0xffffa83e42d0
0xffffa83e4300
0xffffa83e4340
0xffffa83e4348
0xffffa83e4380
0xffffa83e4388
[CIRCULAR_BUFFER] enqueue ip: 0xffffa83e43c0 index: 0
0xffffa83e43c0
[CIRCULAR_BUFFER] enqueue ip: 0xffffa83e4400 index: 0
0xffffa83e4400
[CIRCULAR_BUFFER] enqueue ip: 0xffffa83e4410 index: 1
0xffffa83e4400
0xffffa83e4410
[CIRCULAR_BUFFER] enqueue ip: 0xffffa80bef58 index: 0
0xffffa80bef58
[CIRCULAR_BUFFER] enqueue ip: 0xffffa81e5c80 index: 0
0xffffa81e5c80
[CIRCULAR_BUFFER] enqueue ip: 0xffffa81e5cc0 index: 1
0xffffa81e5c80
0xffffa81e5cc0
[CIRCULAR_BUFFER] enqueue ip: 0xffffa81e5cc4 index: 2
0xffffa81e5c80
0xffffa81e5cc0
0xffffa81e5cc4
[CIRCULAR_BUFFER] enqueue ip: 0xffffa81e5d00 index: 3
0xffffa81e5c80
0xffffa81e5cc0
0xffffa81e5cc4
0xffffa81e5d00
[CIRCULAR_BUFFER] enqueue ip: 0xffffa81e5d08 index: 4
0xffffa81e5c80
0xffffa81e5cc0
0xffffa81e5cc4
0xffffa81e5d00
0xffffa81e5d08
[CIRCULAR_BUFFER] enqueue ip: 0xffffa81e5dc0 index: 5
0xffffa81e5c80
0xffffa81e5cc0
0xffffa81e5cc4
0xffffa81e5d00
0xffffa81e5d08
0xffffa81e5dc0
[CIRCULAR_BUFFER] enqueue ip: 0xffffa81e5e00 index: 6
0xffffa81e5c80
0xffffa81e5cc0
0xffffa81e5cc4
0xffffa81e5d00
0xffffa81e5d08
0xffffa81e5dc0
0xffffa81e5e00
[CIRCULAR_BUFFER] enqueue ip: 0xffffa80bf780 index: 0
0xffffa80bf780
[CIRCULAR_BUFFER] enqueue ip: 0xffffa80bf7d8 index: 1
0xffffa80bf780
0xffffa80bf7d8
[CIRCULAR_BUFFER] enqueue ip: 0xffffa80bf898 index: 0
0xffffa80bf898
[CIRCULAR_BUFFER] enqueue ip: 0xffffa83e4440 index: 0
0xffffa83e4440
[CIRCULAR_BUFFER] enqueue ip: 0xffffa83e4468 index: 1
0xffffa83e4440
0xffffa83e4468
[CIRCULAR_BUFFER] enqueue ip: 0xffffa83e4480 index: 2
0xffffa83e4440
0xffffa83e4468
0xffffa83e4480
[CIRCULAR_BUFFER] enqueue ip: 0xffffa83e4488 index: 3
0xffffa83e4440
0xffffa83e4468
0xffffa83e4480
0xffffa83e4488
[CIRCULAR_BUFFER] enqueue ip: 0xffffa83e44c0 index: 4
0xffffa83e4440
0xffffa83e4468
0xffffa83e4480
0xffffa83e4488
0xffffa83e44c0
[CIRCULAR_BUFFER] enqueue ip: 0xffffa83e44c8 index: 5
0xffffa83e4440
0xffffa83e4468
0xffffa83e4480
0xffffa83e4488
0xffffa83e44c0
0xffffa83e44c8
[CIRCULAR_BUFFER] enqueue ip: 0xffffa83e4500 index: 6
0xffffa83e4440
0xffffa83e4468
0xffffa83e4480
0xffffa83e4488
0xffffa83e44c0
0xffffa83e44c8
0xffffa83e4500
[CIRCULAR_BUFFER] enqueue ip: 0xffffa83e4508 index: 7
0xffffa83e4440
0xffffa83e4468
0xffffa83e4480
0xffffa83e4488
0xffffa83e44c0
0xffffa83e44c8
0xffffa83e4500
0xffffa83e4508
[CIRCULAR_BUFFER] enqueue ip: 0xffffa83e4540 index: 0
0xffffa83e4540
[CIRCULAR_BUFFER] enqueue ip: 0xffffa83e4558 index: 1
0xffffa83e4540
0xffffa83e4558
[CIRCULAR_BUFFER] enqueue ip: 0xffffa83e4580 index: 2
0xffffa83e4540
0xffffa83e4558
0xffffa83e4580
[CIRCULAR_BUFFER] enqueue ip: 0xffffa83e4588 index: 3
0xffffa83e4540
0xffffa83e4558
0xffffa83e4580
0xffffa83e4588
[CIRCULAR_BUFFER] enqueue ip: 0xffffa83e45c0 index: 4
0xffffa83e4540
0xffffa83e4558
0xffffa83e4580
0xffffa83e4588
0xffffa83e45c0
[CIRCULAR_BUFFER] enqueue ip: 0xffffa83e4600 index: 5
0xffffa83e4540
0xffffa83e4558
0xffffa83e4580
0xffffa83e4588
0xffffa83e45c0
0xffffa83e4600
[CIRCULAR_BUFFER] enqueue ip: 0xffffa83e4620 index: 6
0xffffa83e4540
0xffffa83e4558
0xffffa83e4580
0xffffa83e4588
0xffffa83e45c0
0xffffa83e4600
0xffffa83e4620
[CIRCULAR_BUFFER] enqueue ip: 0xffffa83e4640 index: 7
0xffffa83e4540
0xffffa83e4558
0xffffa83e4580
0xffffa83e4588
0xffffa83e45c0
0xffffa83e4600
0xffffa83e4620
0xffffa83e4640
[CIRCULAR_BUFFER] enqueue ip: 0xffffa83e4648 index: 0
0xffffa83e4648
[CIRCULAR_BUFFER] enqueue ip: 0xffffa83b6a00 index: 1
0xffffa83e4648
0xffffa83b6a00
[CIRCULAR_BUFFER] enqueue ip: 0xffffa83b6a18 index: 2
0xffffa83e4648
0xffffa83b6a00
0xffffa83b6a18
[CIRCULAR_BUFFER] enqueue ip: 0xffffa83b6a40 index: 3
0xffffa83e4648
0xffffa83b6a00
0xffffa83b6a18
0xffffa83b6a40
[CIRCULAR_BUFFER] enqueue ip: 0xffffa83b6a48 index: 4
0xffffa83e4648
0xffffa83b6a00
0xffffa83b6a18
0xffffa83b6a40
0xffffa83b6a48
[CIRCULAR_BUFFER] enqueue ip: 0xffffa83e4680 index: 0
0xffffa83e4680
[CIRCULAR_BUFFER] enqueue ip: 0xffffa83e4688 index: 1
0xffffa83e4680
0xffffa83e4688
[CIRCULAR_BUFFER] enqueue ip: 0xffffa83e46c0 index: 2
0xffffa83e4680
0xffffa83e4688
0xffffa83e46c0
[CIRCULAR_BUFFER] enqueue ip: 0xffffa83e46c8 index: 3
0xffffa83e4680
0xffffa83e4688
0xffffa83e46c0
0xffffa83e46c8
[CIRCULAR_BUFFER] enqueue ip: 0xffffa83e513c index: 0
0xffffa83e513c
[CIRCULAR_BUFFER] enqueue ip: 0xffffa83e5140 index: 1
0xffffa83e513c
0xffffa83e5140
[CIRCULAR_BUFFER] enqueue ip: 0xffffa83e4718 index: 0
0xffffa83e4718
[CIRCULAR_BUFFER] enqueue ip: 0xffffa83e4740 index: 1
0xffffa83e4718
0xffffa83e4740
[CIRCULAR_BUFFER] enqueue ip: 0xffffa83e4748 index: 2
0xffffa83e4718
0xffffa83e4740
0xffffa83e4748
[CIRCULAR_BUFFER] enqueue ip: 0xffffa83e4854 index: 3
0xffffa83e4718
0xffffa83e4740
0xffffa83e4748
0xffffa83e4854
[CIRCULAR_BUFFER] enqueue ip: 0xffffa83e5030 index: 4
0xffffa83e4718
0xffffa83e4740
0xffffa83e4748
0xffffa83e4854
0xffffa83e5030
[CIRCULAR_BUFFER] enqueue ip: 0xffffa83e4ffc index: 0
0xffffa83e4ffc
[CIRCULAR_BUFFER] enqueue ip: 0xffffa842ff00 index: 1
0xffffa83e4ffc
0xffffa842ff00
[CIRCULAR_BUFFER] enqueue ip: 0xffffa842ff40 index: 2
0xffffa83e4ffc
0xffffa842ff00
0xffffa842ff40
[CIRCULAR_BUFFER] enqueue ip: 0xffffa842ff48 index: 0
0xffffa842ff48
[CIRCULAR_BUFFER] enqueue ip: 0xffffa82f0890 index: 1
0xffffa842ff48
0xffffa82f0890
[CIRCULAR_BUFFER] enqueue ip: 0xffffa82f08c0 index: 2
0xffffa842ff48
0xffffa82f0890
0xffffa82f08c0
[CIRCULAR_BUFFER] enqueue ip: 0xffffb6f29038 index: 0
0xffffb6f29038
[CIRCULAR_BUFFER] enqueue ip: 0xffffb6f1d720 index: 1
0xffffb6f29038
0xffffb6f1d720
[CIRCULAR_BUFFER] enqueue ip: 0xffffb7849618 index: 2
0xffffb6f29038
0xffffb6f1d720
0xffffb7849618
[CIRCULAR_BUFFER] enqueue ip: 0xffffb7849640 index: 3
0xffffb6f29038
0xffffb6f1d720
0xffffb7849618
0xffffb7849640
[CIRCULAR_BUFFER] enqueue ip: 0xffffb7849648 index: 0
0xffffb7849648
[CIRCULAR_BUFFER] enqueue ip: 0xffffb7827420 index: 1
0xffffb7849648
0xffffb7827420
[CIRCULAR_BUFFER] enqueue ip: 0xffffb7827460 index: 0
0xffffb7827460
[CIRCULAR_BUFFER] enqueue ip: 0xffffb7840330 index: 0
0xffffb7840330
[CIRCULAR_BUFFER] enqueue ip: 0xffffb7840340 index: 1
0xffffb7840330
0xffffb7840340
[CIRCULAR_BUFFER] enqueue ip: 0xffffb78403c8 index: 2
0xffffb7840330
0xffffb7840340
0xffffb78403c8
[CIRCULAR_BUFFER] enqueue ip: 0xffffb7840390 index: 3
0xffffb7840330
0xffffb7840340
0xffffb78403c8
0xffffb7840390
[CIRCULAR_BUFFER] enqueue ip: 0xffffb7851a60 index: 0
0xffffb7851a60
[CIRCULAR_BUFFER] enqueue ip: 0xffffb7851a80 index: 1
0xffffb7851a60
0xffffb7851a80
[CIRCULAR_BUFFER] enqueue ip: 0xffffb7851a90 index: 2
0xffffb7851a60
0xffffb7851a80
0xffffb7851a90
[CIRCULAR_BUFFER] enqueue ip: 0xffffb76fb030 index: 3
0xffffb7851a60
0xffffb7851a80
0xffffb7851a90
0xffffb76fb030
[CIRCULAR_BUFFER] enqueue ip: 0xffffb76fb040 index: 4
0xffffb7851a60
0xffffb7851a80
0xffffb7851a90
0xffffb76fb030
0xffffb76fb040
[CIRCULAR_BUFFER] enqueue ip: 0xffffb7851ac0 index: 5
0xffffb7851a60
0xffffb7851a80
0xffffb7851a90
0xffffb76fb030
0xffffb76fb040
0xffffb7851ac0
[CIRCULAR_BUFFER] enqueue ip: 0xffffb7851ae8 index: 6
0xffffb7851a60
0xffffb7851a80
0xffffb7851a90
0xffffb76fb030
0xffffb76fb040
0xffffb7851ac0
0xffffb7851ae8
[CIRCULAR_BUFFER] enqueue ip: 0xffffb7602168 index: 0
0xffffb7602168
[CIRCULAR_BUFFER] enqueue ip: 0xffffb7602180 index: 1
0xffffb7602168
0xffffb7602180
[CIRCULAR_BUFFER] enqueue ip: 0xffffb777b230 index: 2
0xffffb7602168
0xffffb7602180
0xffffb777b230
[CIRCULAR_BUFFER] enqueue ip: 0xffffb777b240 index: 3
0xffffb7602168
0xffffb7602180
0xffffb777b230
0xffffb777b240
[CIRCULAR_BUFFER] enqueue ip: 0xffffb777b260 index: 4
0xffffb7602168
0xffffb7602180
0xffffb777b230
0xffffb777b240
0xffffb777b260
[CIRCULAR_BUFFER] enqueue ip: 0xffffb777b280 index: 5
0xffffb7602168
0xffffb7602180
0xffffb777b230
0xffffb777b240
0xffffb777b260
0xffffb777b280
[CIRCULAR_BUFFER] enqueue ip: 0xffffb777b288 index: 0
0xffffb777b288
[CIRCULAR_BUFFER] enqueue ip: 0xffffb76021c0 index: 1
0xffffb777b288
0xffffb76021c0
[CIRCULAR_BUFFER] enqueue ip: 0xffffb76021e0 index: 2
0xffffb777b288
0xffffb76021c0
0xffffb76021e0
[CIRCULAR_BUFFER] enqueue ip: 0xffffb7851b00 index: 0
0xffffb7851b00
[CIRCULAR_BUFFER] enqueue ip: 0xffffb76ff568 index: 1
0xffffb7851b00
0xffffb76ff568
[CIRCULAR_BUFFER] enqueue ip: 0xffffb76ff580 index: 2
0xffffb7851b00
0xffffb76ff568
0xffffb76ff580
[CIRCULAR_BUFFER] enqueue ip: 0xffffb76ff5c0 index: 3
0xffffb7851b00
0xffffb76ff568
0xffffb76ff580
0xffffb76ff5c0
[CIRCULAR_BUFFER] enqueue ip: 0xffffb79faf18 index: 0
0xffffb79faf18
[CIRCULAR_BUFFER] enqueue ip: 0xffffb79fae80 index: 0
0xffffb79fae80
[CIRCULAR_BUFFER] enqueue ip: 0xffffb79faec0 index: 1
0xffffb79fae80
0xffffb79faec0
[CIRCULAR_BUFFER] enqueue ip: 0xffffb79faec8 index: 2
0xffffb79fae80
0xffffb79faec0
0xffffb79faec8
[CIRCULAR_BUFFER] enqueue ip: 0xffffb7851df4 index: 3
0xffffb79fae80
0xffffb79faec0
0xffffb79faec8
0xffffb7851df4
[CIRCULAR_BUFFER] enqueue ip: 0xffffb7851b40 index: 0
0xffffb7851b40
[CIRCULAR_BUFFER] enqueue ip: 0xffffb7851b4c index: 1
0xffffb7851b40
0xffffb7851b4c
[CIRCULAR_BUFFER] enqueue ip: 0xffffb76fef98 index: 2
0xffffb7851b40
0xffffb7851b4c
0xffffb76fef98
[CIRCULAR_BUFFER] enqueue ip: 0xffffb76fefc0 index: 3
0xffffb7851b40
0xffffb7851b4c
0xffffb76fef98
0xffffb76fefc0
[CIRCULAR_BUFFER] enqueue ip: 0xffffb76fefc8 index: 0
0xffffb76fefc8
[CIRCULAR_BUFFER] enqueue ip: 0xffffb76047f8 index: 0
0xffffb76047f8
[CIRCULAR_BUFFER] enqueue ip: 0xffffb7851b80 index: 1
0xffffb76047f8
0xffffb7851b80
[CIRCULAR_BUFFER] enqueue ip: 0xffffb7851ba0 index: 2
0xffffb76047f8
0xffffb7851b80
0xffffb7851ba0
[CIRCULAR_BUFFER] enqueue ip: 0xffffb7851bc0 index: 3
0xffffb76047f8
0xffffb7851b80
0xffffb7851ba0
0xffffb7851bc0
[CIRCULAR_BUFFER] enqueue ip: 0xffffb7849680 index: 0
0xffffb7849680
[CIRCULAR_BUFFER] enqueue ip: 0xffffb7bc8050 index: 1
0xffffb7849680
0xffffb7bc8050
[CIRCULAR_BUFFER] enqueue ip: 0xffffb7bc8080 index: 2
0xffffb7849680
0xffffb7bc8050
0xffffb7bc8080
[CIRCULAR_BUFFER] enqueue ip: 0xffffb7bc80d8 index: 0
0xffffb7bc80d8
[CIRCULAR_BUFFER] enqueue ip: 0xffffb78e1318 index: 1
0xffffb7bc80d8
0xffffb78e1318
[CIRCULAR_BUFFER] enqueue ip: 0xffffb78e1340 index: 0
0xffffb78e1340
[CIRCULAR_BUFFER] enqueue ip: 0xffffb7bc8100 index: 1
0xffffb78e1340
0xffffb7bc8100
[CIRCULAR_BUFFER] enqueue ip: 0xffffb7bc8430 index: 0
0xffffb7bc8430
[CIRCULAR_BUFFER] enqueue ip: 0xffffb7bc8440 index: 1
0xffffb7bc8430
0xffffb7bc8440
[CIRCULAR_BUFFER] enqueue ip: 0xffffb78e2308 index: 0
0xffffb78e2308
[CIRCULAR_BUFFER] enqueue ip: 0xffffb78498e8 index: 1
0xffffb78e2308
0xffffb78498e8
[CIRCULAR_BUFFER] enqueue ip: 0xffffb78496c0 index: 2
0xffffb78e2308
0xffffb78498e8
0xffffb78496c0
[CIRCULAR_BUFFER] enqueue ip: 0xffffb76ffa68 index: 3
0xffffb78e2308
0xffffb78498e8
0xffffb78496c0
0xffffb76ffa68
[CIRCULAR_BUFFER] enqueue ip: 0xffffb76ffa80 index: 4
0xffffb78e2308
0xffffb78498e8
0xffffb78496c0
0xffffb76ffa68
0xffffb76ffa80
[CIRCULAR_BUFFER] enqueue ip: 0xffffb76ffa98 index: 5
0xffffb78e2308
0xffffb78498e8
0xffffb78496c0
0xffffb76ffa68
0xffffb76ffa80
0xffffb76ffa98
[CIRCULAR_BUFFER] enqueue ip: 0xffffb76ffac0 index: 6
0xffffb78e2308
0xffffb78498e8
0xffffb78496c0
0xffffb76ffa68
0xffffb76ffa80
0xffffb76ffa98
0xffffb76ffac0
[CIRCULAR_BUFFER] enqueue ip: 0xffffb76ffac8 index: 7
0xffffb78e2308
0xffffb78498e8
0xffffb78496c0
0xffffb76ffa68
0xffffb76ffa80
0xffffb76ffa98
0xffffb76ffac0
0xffffb76ffac8
[CIRCULAR_BUFFER] enqueue ip: 0xffffb76ffbb8 index: 8
0xffffb78e2308
0xffffb78498e8
0xffffb78496c0
0xffffb76ffa68
0xffffb76ffa80
0xffffb76ffa98
0xffffb76ffac0
0xffffb76ffac8
0xffffb76ffbb8
[CIRCULAR_BUFFER] enqueue ip: 0xffffb76ffbc0 index: 9
0xffffb78e2308
0xffffb78498e8
0xffffb78496c0
0xffffb76ffa68
0xffffb76ffa80
0xffffb76ffa98
0xffffb76ffac0
0xffffb76ffac8
0xffffb76ffbb8
0xffffb76ffbc0
[CIRCULAR_BUFFER] enqueue ip: 0xffffb76ffbe8 index: 0
0xffffb76ffbe8
[CIRCULAR_BUFFER] enqueue ip: 0xffffb76ffc00 index: 0
0xffffb76ffc00
[CIRCULAR_BUFFER] enqueue ip: 0xffffb76ffb34 index: 0
0xffffb76ffb34
[CIRCULAR_BUFFER] enqueue ip: 0xffffb76ffb40 index: 1
0xffffb76ffb34
0xffffb76ffb40
[CIRCULAR_BUFFER] enqueue ip: 0xffffb7849700 index: 0
0xffffb7849700
[CIRCULAR_BUFFER] enqueue ip: 0xffffb78497b8 index: 0
0xffffb78497b8
[CIRCULAR_BUFFER] enqueue ip: 0xffffb78497c0 index: 1
0xffffb78497b8
0xffffb78497c0
[CIRCULAR_BUFFER] enqueue ip: 0xffffb79f9c50 index: 2
0xffffb78497b8
0xffffb78497c0
0xffffb79f9c50
[CIRCULAR_BUFFER] enqueue ip: 0xffffb79f9c80 index: 3
0xffffb78497b8
0xffffb78497c0
0xffffb79f9c50
0xffffb79f9c80
[CIRCULAR_BUFFER] enqueue ip: 0xffffb79f9da8 index: 4
0xffffb78497b8
0xffffb78497c0
0xffffb79f9c50
0xffffb79f9c80
0xffffb79f9da8
[CIRCULAR_BUFFER] enqueue ip: 0xffffb79f9dc0 index: 5
0xffffb78497b8
0xffffb78497c0
0xffffb79f9c50
0xffffb79f9c80
0xffffb79f9da8
0xffffb79f9dc0
[CIRCULAR_BUFFER] enqueue ip: 0xffffb7849800 index: 0
0xffffb7849800
[CIRCULAR_BUFFER] enqueue ip: 0xffffb7849814 index: 1
0xffffb7849800
0xffffb7849814
[CIRCULAR_BUFFER] enqueue ip: 0xffffb7849840 index: 2
0xffffb7849800
0xffffb7849814
0xffffb7849840
[CIRCULAR_BUFFER] enqueue ip: 0xffffb7849a48 index: 0
0xffffb7849a48
[CIRCULAR_BUFFER] enqueue ip: 0xffffb763dcb8 index: 1
0xffffb7849a48
0xffffb763dcb8
[CIRCULAR_BUFFER] enqueue ip: 0xffffb763dcc0 index: 2
0xffffb7849a48
0xffffb763dcb8
0xffffb763dcc0
[CIRCULAR_BUFFER] enqueue ip: 0xffffb763dd04 index: 0
0xffffb763dd04
[CIRCULAR_BUFFER] enqueue ip: 0xffffb7849880 index: 1
0xffffb763dd04
0xffffb7849880
[CIRCULAR_BUFFER] enqueue ip: 0xffffb7849894 index: 2
0xffffb763dd04
0xffffb7849880
0xffffb7849894
[CIRCULAR_BUFFER] enqueue ip: 0xffffb7849900 index: 0
0xffffb7849900
[CIRCULAR_BUFFER] enqueue ip: 0xffffb7849968 index: 1
0xffffb7849900
0xffffb7849968
[CIRCULAR_BUFFER] enqueue ip: 0xffffb7849980 index: 2
0xffffb7849900
0xffffb7849968
0xffffb7849980
[CIRCULAR_BUFFER] enqueue ip: 0xffffb7849a98 index: 3
0xffffb7849900
0xffffb7849968
0xffffb7849980
0xffffb7849a98
[CIRCULAR_BUFFER] enqueue ip: 0xffffb78499c0 index: 0
0xffffb78499c0
[CIRCULAR_BUFFER] enqueue ip: 0xffffb7bc8368 index: 0
0xffffb7bc8368
[CIRCULAR_BUFFER] enqueue ip: 0xffffb7bc8140 index: 0
0xffffb7bc8140
[CIRCULAR_BUFFER] enqueue ip: 0xffffb7bc8180 index: 0
0xffffb7bc8180
[CIRCULAR_BUFFER] enqueue ip: 0xffffb7bc8228 index: 1
0xffffb7bc8180
0xffffb7bc8228
[CIRCULAR_BUFFER] enqueue ip: 0xffffb7bc8240 index: 2
0xffffb7bc8180
0xffffb7bc8228
0xffffb7bc8240
[CIRCULAR_BUFFER] enqueue ip: 0xffffb7bc8280 index: 3
0xffffb7bc8180
0xffffb7bc8228
0xffffb7bc8240
0xffffb7bc8280
[CIRCULAR_BUFFER] enqueue ip: 0xffffb7bc8290 index: 4
0xffffb7bc8180
0xffffb7bc8228
0xffffb7bc8240
0xffffb7bc8280
0xffffb7bc8290
[CIRCULAR_BUFFER] enqueue ip: 0xffffb7bc82c0 index: 5
0xffffb7bc8180
0xffffb7bc8228
0xffffb7bc8240
0xffffb7bc8280
0xffffb7bc8290
0xffffb7bc82c0
[CIRCULAR_BUFFER] enqueue ip: 0xffffb7bc82c8 index: 6
0xffffb7bc8180
0xffffb7bc8228
0xffffb7bc8240
0xffffb7bc8280
0xffffb7bc8290
0xffffb7bc82c0
0xffffb7bc82c8
[CIRCULAR_BUFFER] enqueue ip: 0xffffb7bc8300 index: 7
0xffffb7bc8180
0xffffb7bc8228
0xffffb7bc8240
0xffffb7bc8280
0xffffb7bc8290
0xffffb7bc82c0
0xffffb7bc82c8
0xffffb7bc8300
[CIRCULAR_BUFFER] enqueue ip: 0xffffb7bc8380 index: 0
0xffffb7bc8380
[CIRCULAR_BUFFER] enqueue ip: 0xffffb7bc8398 index: 1
0xffffb7bc8380
0xffffb7bc8398
[CIRCULAR_BUFFER] enqueue ip: 0xffffb7bc83c0 index: 2
0xffffb7bc8380
0xffffb7bc8398
0xffffb7bc83c0
[CIRCULAR_BUFFER] enqueue ip: 0xffffb7bc83c8 index: 3
0xffffb7bc8380
0xffffb7bc8398
0xffffb7bc83c0
0xffffb7bc83c8
[CIRCULAR_BUFFER] enqueue ip: 0xffffb7602250 index: 0
0xffffb7602250
[CIRCULAR_BUFFER] enqueue ip: 0xffffb75fea88 index: 0
0xffffb75fea88
[CIRCULAR_BUFFER] enqueue ip: 0xffffb75fea38 index: 0
0xffffb75fea38
[CIRCULAR_BUFFER] enqueue ip: 0xffffb76fbe38 index: 0
0xffffb76fbe38
[CIRCULAR_BUFFER] enqueue ip: 0xffffb76fbe40 index: 1
0xffffb76fbe38
0xffffb76fbe40
[CIRCULAR_BUFFER] enqueue ip: 0xffffb79b5358 index: 2
0xffffb76fbe38
0xffffb76fbe40
0xffffb79b5358
[CIRCULAR_BUFFER] enqueue ip: 0xffffb79b5390 index: 3
0xffffb76fbe38
0xffffb76fbe40
0xffffb79b5358
0xffffb79b5390
[CIRCULAR_BUFFER] enqueue ip: 0xffffb783fee8 index: 0
0xffffb783fee8
[CIRCULAR_BUFFER] enqueue ip: 0xffffb783ff28 index: 1
0xffffb783fee8
0xffffb783ff28
[CIRCULAR_BUFFER] enqueue ip: 0xffffb783fba8 index: 2
0xffffb783fee8
0xffffb783ff28
0xffffb783fba8
[CIRCULAR_BUFFER] enqueue ip: 0xffffb783fbc0 index: 3
0xffffb783fee8
0xffffb783ff28
0xffffb783fba8
0xffffb783fbc0
[CIRCULAR_BUFFER] enqueue ip: 0xffffb783fc00 index: 4
0xffffb783fee8
0xffffb783ff28
0xffffb783fba8
0xffffb783fbc0
0xffffb783fc00
[CIRCULAR_BUFFER] enqueue ip: 0xffffb783fd18 index: 0
0xffffb783fd18
[CIRCULAR_BUFFER] enqueue ip: 0xffffb783fd40 index: 1
0xffffb783fd18
0xffffb783fd40
[CIRCULAR_BUFFER] enqueue ip: 0xffffb77f84a8 index: 0
0xffffb77f84a8
[CIRCULAR_BUFFER] enqueue ip: 0xffffb77f84c0 index: 1
0xffffb77f84a8
0xffffb77f84c0
[CIRCULAR_BUFFER] enqueue ip: 0xffffb7849a00 index: 0
0xffffb7849a00
[CIRCULAR_BUFFER] enqueue ip: 0xffffb7840400 index: 1
0xffffb7849a00
0xffffb7840400
[CIRCULAR_BUFFER] enqueue ip: 0xffffb7840478 index: 2
0xffffb7849a00
0xffffb7840400
0xffffb7840478
[CIRCULAR_BUFFER] enqueue ip: 0xffffb7840480 index: 3
0xffffb7849a00
0xffffb7840400
0xffffb7840478
0xffffb7840480
[CIRCULAR_BUFFER] enqueue ip: 0xffffa82f0900 index: 0
0xffffa82f0900
[CIRCULAR_BUFFER] enqueue ip: 0xffffa82f0928 index: 1
0xffffa82f0900
0xffffa82f0928
[CIRCULAR_BUFFER] enqueue ip: 0xffffa82f0940 index: 2
0xffffa82f0900
0xffffa82f0928
0xffffa82f0940
[CIRCULAR_BUFFER] enqueue ip: 0xffffa82f0948 index: 0
0xffffa82f0948
[CIRCULAR_BUFFER] enqueue ip: 0xffffa842ff80 index: 0
0xffffa842ff80
[CIRCULAR_BUFFER] enqueue ip: 0xffffa842ff98 index: 1
0xffffa842ff80
0xffffa842ff98
[CIRCULAR_BUFFER] enqueue ip: 0xffffa82dd650 index: 2
0xffffa842ff80
0xffffa842ff98
0xffffa82dd650
[CIRCULAR_BUFFER] enqueue ip: 0xffffa82dd680 index: 3
0xffffa842ff80
0xffffa842ff98
0xffffa82dd650
0xffffa82dd680
[CIRCULAR_BUFFER] enqueue ip: 0xffffa82dd6c0 index: 4
0xffffa842ff80
0xffffa842ff98
0xffffa82dd650
0xffffa82dd680
0xffffa82dd6c0
[CIRCULAR_BUFFER] enqueue ip: 0xffffa82dd6c8 index: 0
0xffffa82dd6c8
[CIRCULAR_BUFFER] enqueue ip: 0xffffb6f20008 index: 1
0xffffa82dd6c8
0xffffb6f20008
[CIRCULAR_BUFFER] enqueue ip: 0xffffb6f20040 index: 2
0xffffa82dd6c8
0xffffb6f20008
0xffffb6f20040
[CIRCULAR_BUFFER] enqueue ip: 0xffffb6f20050 index: 0
0xffffb6f20050
[CIRCULAR_BUFFER] enqueue ip: 0xffffb7819fd0 index: 1
0xffffb6f20050
0xffffb7819fd0
[CIRCULAR_BUFFER] enqueue ip: 0xffffb781a000 index: 2
0xffffb6f20050
0xffffb7819fd0
0xffffb781a000
[CIRCULAR_BUFFER] enqueue ip: 0xffffb781a040 index: 0
0xffffb781a040
[CIRCULAR_BUFFER] enqueue ip: 0xffffb7811420 index: 1
0xffffb781a040
0xffffb7811420
[CIRCULAR_BUFFER] enqueue ip: 0xffffb7811440 index: 2
0xffffb781a040
0xffffb7811420
0xffffb7811440
[CIRCULAR_BUFFER] enqueue ip: 0xffffb78114b8 index: 3
0xffffb781a040
0xffffb7811420
0xffffb7811440
0xffffb78114b8
[CIRCULAR_BUFFER] enqueue ip: 0xffffb78114c0 index: 4
0xffffb781a040
0xffffb7811420
0xffffb7811440
0xffffb78114b8
0xffffb78114c0
[CIRCULAR_BUFFER] enqueue ip: 0xffffb781a080 index: 0
0xffffb781a080
[CIRCULAR_BUFFER] enqueue ip: 0xffffb781a08c index: 0
0xffffb781a08c
[CIRCULAR_BUFFER] enqueue ip: 0xffffb78056d8 index: 1
0xffffb781a08c
0xffffb78056d8
[CIRCULAR_BUFFER] enqueue ip: 0xffffb7805700 index: 2
0xffffb781a08c
0xffffb78056d8
0xffffb7805700
[CIRCULAR_BUFFER] enqueue ip: 0xffffb7805708 index: 3
0xffffb781a08c
0xffffb78056d8
0xffffb7805700
0xffffb7805708
[CIRCULAR_BUFFER] enqueue ip: 0xffffb7805790 index: 4
0xffffb781a08c
0xffffb78056d8
0xffffb7805700
0xffffb7805708
0xffffb7805790
[CIRCULAR_BUFFER] enqueue ip: 0xffffb78057c0 index: 5
0xffffb781a08c
0xffffb78056d8
0xffffb7805700
0xffffb7805708
0xffffb7805790
0xffffb78057c0
[CIRCULAR_BUFFER] enqueue ip: 0xffffb7805744 index: 6
0xffffb781a08c
0xffffb78056d8
0xffffb7805700
0xffffb7805708
0xffffb7805790
0xffffb78057c0
0xffffb7805744
[CIRCULAR_BUFFER] enqueue ip: 0xffffb7bab2d0 index: 7
0xffffb781a08c
0xffffb78056d8
0xffffb7805700
0xffffb7805708
0xffffb7805790
0xffffb78057c0
0xffffb7805744
0xffffb7bab2d0
[CIRCULAR_BUFFER] enqueue ip: 0xffffb7bab300 index: 8
0xffffb781a08c
0xffffb78056d8
0xffffb7805700
0xffffb7805708
0xffffb7805790
0xffffb78057c0
0xffffb7805744
0xffffb7bab2d0
0xffffb7bab300
[CIRCULAR_BUFFER] enqueue ip: 0xffffb781a0c0 index: 0
0xffffb781a0c0
[CIRCULAR_BUFFER] enqueue ip: 0xffffb7811370 index: 0
0xffffb7811370
[CIRCULAR_BUFFER] enqueue ip: 0xffffb7811380 index: 1
0xffffb7811370
0xffffb7811380
[CIRCULAR_BUFFER] enqueue ip: 0xffffb78113f8 index: 2
0xffffb7811370
0xffffb7811380
0xffffb78113f8
[CIRCULAR_BUFFER] enqueue ip: 0xffffb7812170 index: 0
0xffffb7812170
[CIRCULAR_BUFFER] enqueue ip: 0xffffb7812180 index: 1
0xffffb7812170
0xffffb7812180
[CIRCULAR_BUFFER] enqueue ip: 0xffffb7812248 index: 2
0xffffb7812170
0xffffb7812180
0xffffb7812248
[CIRCULAR_BUFFER] enqueue ip: 0xffffb78121c0 index: 0
0xffffb78121c0
[CIRCULAR_BUFFER] enqueue ip: 0xffffb78121e4 index: 1
0xffffb78121c0
0xffffb78121e4
[CIRCULAR_BUFFER] enqueue ip: 0xffffb7812200 index: 2
0xffffb78121c0
0xffffb78121e4
0xffffb7812200
[CIRCULAR_BUFFER] enqueue ip: 0xffffb7812284 index: 0
0xffffb7812284
[CIRCULAR_BUFFER] enqueue ip: 0xffffb6f20080 index: 0
0xffffb6f20080
[CIRCULAR_BUFFER] enqueue ip: 0xffffb6f200a8 index: 1
0xffffb6f20080
0xffffb6f200a8
[CIRCULAR_BUFFER] enqueue ip: 0xffffb781a488 index: 2
0xffffb6f20080
0xffffb6f200a8
0xffffb781a488
[CIRCULAR_BUFFER] enqueue ip: 0xffffb781a4c0 index: 0
0xffffb781a4c0
[CIRCULAR_BUFFER] enqueue ip: 0xffffb781a5e0 index: 0
0xffffb781a5e0
[CIRCULAR_BUFFER] enqueue ip: 0xffffb781a600 index: 1
0xffffb781a5e0
0xffffb781a600
[CIRCULAR_BUFFER] enqueue ip: 0xffffb781a640 index: 2
0xffffb781a5e0
0xffffb781a600
0xffffb781a640
[CIRCULAR_BUFFER] enqueue ip: 0xffffb781a500 index: 3
0xffffb781a5e0
0xffffb781a600
0xffffb781a640
0xffffb781a500
[CIRCULAR_BUFFER] enqueue ip: 0xffffb781a580 index: 0
0xffffb781a580
[CIRCULAR_BUFFER] enqueue ip: 0xffffb7805a58 index: 1
0xffffb781a580
0xffffb7805a58
[CIRCULAR_BUFFER] enqueue ip: 0xffffb7805a80 index: 2
0xffffb781a580
0xffffb7805a58
0xffffb7805a80
[CIRCULAR_BUFFER] enqueue ip: 0xffffb7805a88 index: 3
0xffffb781a580
0xffffb7805a58
0xffffb7805a80
0xffffb7805a88
[CIRCULAR_BUFFER] enqueue ip: 0xffffb7805af4 index: 4
0xffffb781a580
0xffffb7805a58
0xffffb7805a80
0xffffb7805a88
0xffffb7805af4
[CIRCULAR_BUFFER] enqueue ip: 0xffffb7bab340 index: 5
0xffffb781a580
0xffffb7805a58
0xffffb7805a80
0xffffb7805a88
0xffffb7805af4
0xffffb7bab340
[CIRCULAR_BUFFER] enqueue ip: 0xffffb7bab394 index: 0
0xffffb7bab394
[CIRCULAR_BUFFER] enqueue ip: 0xffffb7abc3a8 index: 0
0xffffb7abc3a8
[CIRCULAR_BUFFER] enqueue ip: 0xffffb7abc3c0 index: 1
0xffffb7abc3a8
0xffffb7abc3c0
[CIRCULAR_BUFFER] enqueue ip: 0xffffb7ff4250 index: 2
0xffffb7abc3a8
0xffffb7abc3c0
0xffffb7ff4250
[...]
0xffffa83506d0
0xffffa8198040
0xffffa8198080
0xffffa81980a0
0xffffa81980c4
[CIRCULAR_BUFFER] enqueue ip: 0xffffa8198100 index: 5
0xffffa83506d0
0xffffa8198040
0xffffa8198080
0xffffa81980a0
0xffffa81980c4
0xffffa8198100
[CIRCULAR_BUFFER] enqueue ip: 0xffffa819810c index: 6
0xffffa83506d0
0xffffa8198040
0xffffa8198080
0xffffa81980a0
0xffffa81980c4
0xffffa8198100
0xffffa819810c
[CIRCULAR_BUFFER] enqueue ip: 0xffffa8198140 index: 0
0xffffa8198140
[CIRCULAR_BUFFER] enqueue ip: 0xffffa8350700 index: 1
0xffffa8198140
0xffffa8350700
[CIRCULAR_BUFFER] enqueue ip: 0xffffa8350714 index: 2
0xffffa8198140
0xffffa8350700
0xffffa8350714
[CIRCULAR_BUFFER] enqueue ip: 0xffffa835079c index: 0
0xffffa835079c
[CIRCULAR_BUFFER] enqueue ip: 0xffffa8384490 index: 1
0xffffa835079c
0xffffa8384490
[CIRCULAR_BUFFER] enqueue ip: 0xffffa83844c0 index: 2
0xffffa835079c
0xffffa8384490
0xffffa83844c0
[CIRCULAR_BUFFER] enqueue ip: 0xffffa8384500 index: 3
0xffffa835079c
0xffffa8384490
0xffffa83844c0
0xffffa8384500
[CIRCULAR_BUFFER] enqueue ip: 0xffffa8384540 index: 4
0xffffa835079c
0xffffa8384490
0xffffa83844c0
0xffffa8384500
0xffffa8384540
[CIRCULAR_BUFFER] enqueue ip: 0xffffa8384548 index: 5
0xffffa835079c
0xffffa8384490
0xffffa83844c0
0xffffa8384500
0xffffa8384540
0xffffa8384548
[CIRCULAR_BUFFER] enqueue ip: 0xffffa8384580 index: 6
0xffffa835079c
0xffffa8384490
0xffffa83844c0
0xffffa8384500
0xffffa8384540
0xffffa8384548
0xffffa8384580
[CIRCULAR_BUFFER] enqueue ip: 0xffffa8384588 index: 7
0xffffa835079c
0xffffa8384490
0xffffa83844c0
0xffffa8384500
0xffffa8384540
0xffffa8384548
0xffffa8384580
0xffffa8384588
[CIRCULAR_BUFFER] enqueue ip: 0xffffa83845c0 index: 8
0xffffa835079c
0xffffa8384490
0xffffa83844c0
0xffffa8384500
0xffffa8384540
0xffffa8384548
0xffffa8384580
0xffffa8384588
0xffffa83845c0
[CIRCULAR_BUFFER] enqueue ip: 0xffffa83845d0 index: 9
0xffffa835079c
0xffffa8384490
0xffffa83844c0
0xffffa8384500
0xffffa8384540
0xffffa8384548
0xffffa8384580
0xffffa8384588
0xffffa83845c0
0xffffa83845d0
[CIRCULAR_BUFFER] enqueue ip: 0xffffa8384600 index: 0
0xffffa8384600
[CIRCULAR_BUFFER] enqueue ip: 0xffffa83507c0 index: 1
0xffffa8384600
0xffffa83507c0
[CIRCULAR_BUFFER] enqueue ip: 0xffffa83507d8 index: 2
0xffffa8384600
0xffffa83507c0
0xffffa83507d8
[CIRCULAR_BUFFER] enqueue ip: 0xffffa8350800 index: 3
0xffffa8384600
0xffffa83507c0
0xffffa83507d8
0xffffa8350800
[CIRCULAR_BUFFER] enqueue ip: 0xffffa8350808 index: 4
0xffffa8384600
0xffffa83507c0
0xffffa83507d8
0xffffa8350800
0xffffa8350808
[CIRCULAR_BUFFER] enqueue ip: 0xffffa842be00 index: 0
0xffffa842be00
[CIRCULAR_BUFFER] enqueue ip: 0xffffa816c480 index: 1
0xffffa842be00
0xffffa816c480
[CIRCULAR_BUFFER] enqueue ip: 0xffffa816c4c0 index: 2
0xffffa842be00
0xffffa816c480
0xffffa816c4c0
[CIRCULAR_BUFFER] enqueue ip: 0xffffa816c4c8 index: 3
0xffffa842be00
0xffffa816c480
0xffffa816c4c0
0xffffa816c4c8
[CIRCULAR_BUFFER] enqueue ip: 0xffffa816c500 index: 4
0xffffa842be00
0xffffa816c480
0xffffa816c4c0
0xffffa816c4c8
0xffffa816c500
[CIRCULAR_BUFFER] enqueue ip: 0xffffa816c508 index: 5
0xffffa842be00
0xffffa816c480
0xffffa816c4c0
0xffffa816c4c8
0xffffa816c500
0xffffa816c508
[CIRCULAR_BUFFER] enqueue ip: 0xffffb7565f10 index: 0
0xffffb7565f10
[CIRCULAR_BUFFER] enqueue ip: 0xffffb7565f40 index: 1
0xffffb7565f10
0xffffb7565f40
[CIRCULAR_BUFFER] enqueue ip: 0xffffb7565f80 index: 2
0xffffb7565f10
0xffffb7565f40
0xffffb7565f80
[CIRCULAR_BUFFER] enqueue ip: 0xffffb7565f88 index: 3
0xffffb7565f10
0xffffb7565f40
0xffffb7565f80
0xffffb7565f88
[CIRCULAR_BUFFER] enqueue ip: 0xffffb76fb030 index: 0
0xffffb76fb030
[CIRCULAR_BUFFER] enqueue ip: 0xffffb76fb040 index: 1
0xffffb76fb030
0xffffb76fb040
[CIRCULAR_BUFFER] enqueue ip: 0xffffb7602168 index: 0
0xffffb7602168
[CIRCULAR_BUFFER] enqueue ip: 0xffffb7602180 index: 1
0xffffb7602168
0xffffb7602180
[CIRCULAR_BUFFER] enqueue ip: 0xffffb777b230 index: 2
0xffffb7602168
0xffffb7602180
0xffffb777b230
[CIRCULAR_BUFFER] enqueue ip: 0xffffb777b240 index: 3
0xffffb7602168
0xffffb7602180
0xffffb777b230
0xffffb777b240
[CIRCULAR_BUFFER] enqueue ip: 0xffffb777b280 index: 4
0xffffb7602168
0xffffb7602180
0xffffb777b230
0xffffb777b240
0xffffb777b280
[CIRCULAR_BUFFER] enqueue ip: 0xffffb777b288 index: 0
0xffffb777b288
[CIRCULAR_BUFFER] enqueue ip: 0xffffb76021c0 index: 1
0xffffb777b288
0xffffb76021c0
[CIRCULAR_BUFFER] enqueue ip: 0xffffb76021d4 index: 2
0xffffb777b288
0xffffb76021c0
0xffffb76021d4
[CIRCULAR_BUFFER] enqueue ip: 0xffffb7602250 index: 0
0xffffb7602250
[CIRCULAR_BUFFER] enqueue ip: 0xffffb7565fc0 index: 0
0xffffb7565fc0
[CIRCULAR_BUFFER] enqueue ip: 0xffffb76ff568 index: 1
0xffffb7565fc0
0xffffb76ff568
[CIRCULAR_BUFFER] enqueue ip: 0xffffb76ff580 index: 2
0xffffb7565fc0
0xffffb76ff568
0xffffb76ff580
[CIRCULAR_BUFFER] enqueue ip: 0xffffb76ff5e0 index: 3
0xffffb7565fc0
0xffffb76ff568
0xffffb76ff580
0xffffb76ff5e0
[CIRCULAR_BUFFER] enqueue ip: 0xffffb79fae80 index: 0
0xffffb79fae80
[CIRCULAR_BUFFER] enqueue ip: 0xffffb79faf00 index: 0
0xffffb79faf00
[CIRCULAR_BUFFER] enqueue ip: 0xffffb79faed4 index: 1
0xffffb79faf00
0xffffb79faed4
[CIRCULAR_BUFFER] enqueue ip: 0xffffb7566560 index: 2
0xffffb79faf00
0xffffb79faed4
0xffffb7566560
[CIRCULAR_BUFFER] enqueue ip: 0xffffb76ffac0 index: 0
0xffffb76ffac0
[CIRCULAR_BUFFER] enqueue ip: 0xffffb76ffac8 index: 1
0xffffb76ffac0
0xffffb76ffac8
[CIRCULAR_BUFFER] enqueue ip: 0xffffb76ffbb8 index: 2
0xffffb76ffac0
0xffffb76ffac8
0xffffb76ffbb8
[CIRCULAR_BUFFER] enqueue ip: 0xffffb76ffbc0 index: 3
0xffffb76ffac0
0xffffb76ffac8
0xffffb76ffbb8
0xffffb76ffbc0
[CIRCULAR_BUFFER] enqueue ip: 0xffffb76ffbc4 index: 4
0xffffb76ffac0
0xffffb76ffac8
0xffffb76ffbb8
0xffffb76ffbc0
0xffffb76ffbc4
[CIRCULAR_BUFFER] enqueue ip: 0xffffb76ffc00 index: 0
0xffffb76ffc00
[CIRCULAR_BUFFER] enqueue ip: 0xffffb76ffb34 index: 1
0xffffb76ffc00
0xffffb76ffb34
[CIRCULAR_BUFFER] enqueue ip: 0xffffb76ffb40 index: 2
0xffffb76ffc00
0xffffb76ffb34
0xffffb76ffb40
[CIRCULAR_BUFFER] enqueue ip: 0xffffb7566000 index: 0
0xffffb7566000
[CIRCULAR_BUFFER] enqueue ip: 0xffffb7566028 index: 1
0xffffb7566000
0xffffb7566028
[CIRCULAR_BUFFER] enqueue ip: 0xffffb75669f0 index: 2
0xffffb7566000
0xffffb7566028
0xffffb75669f0
[CIRCULAR_BUFFER] enqueue ip: 0xffffb7566a00 index: 3
0xffffb7566000
0xffffb7566028
0xffffb75669f0
0xffffb7566a00
[CIRCULAR_BUFFER] enqueue ip: 0xffffb75660a0 index: 4
0xffffb7566000
0xffffb7566028
0xffffb75669f0
0xffffb7566a00
0xffffb75660a0
[CIRCULAR_BUFFER] enqueue ip: 0xffffb75660c0 index: 5
0xffffb7566000
0xffffb7566028
0xffffb75669f0
0xffffb7566a00
0xffffb75660a0
0xffffb75660c0
[CIRCULAR_BUFFER] enqueue ip: 0xffffb7566100 index: 0
0xffffb7566100
[CIRCULAR_BUFFER] enqueue ip: 0xffffb7aed568 index: 1
0xffffb7566100
0xffffb7aed568
[CIRCULAR_BUFFER] enqueue ip: 0xffffb7aed580 index: 2
0xffffb7566100
0xffffb7aed568
0xffffb7aed580
[CIRCULAR_BUFFER] enqueue ip: 0xffffb7aed598 index: 3
0xffffb7566100
0xffffb7aed568
0xffffb7aed580
0xffffb7aed598
[CIRCULAR_BUFFER] enqueue ip: 0xffffb7aed5c4 index: 4
0xffffb7566100
0xffffb7aed568
0xffffb7aed580
0xffffb7aed598
0xffffb7aed5c4
[CIRCULAR_BUFFER] enqueue ip: 0xffffb7aed940 index: 5
0xffffb7566100
0xffffb7aed568
0xffffb7aed580
0xffffb7aed598
0xffffb7aed5c4
0xffffb7aed940
[CIRCULAR_BUFFER] enqueue ip: 0xffffb7aed600 index: 6
0xffffb7566100
0xffffb7aed568
0xffffb7aed580
0xffffb7aed598
0xffffb7aed5c4
0xffffb7aed940
0xffffb7aed600
[CIRCULAR_BUFFER] enqueue ip: 0xffffb7aed928 index: 7
0xffffb7566100
0xffffb7aed568
0xffffb7aed580
0xffffb7aed598
0xffffb7aed5c4
0xffffb7aed940
0xffffb7aed600
0xffffb7aed928
[CIRCULAR_BUFFER] enqueue ip: 0xffffb7aed69c index: 8
0xffffb7566100
0xffffb7aed568
0xffffb7aed580
0xffffb7aed598
0xffffb7aed5c4
0xffffb7aed940
0xffffb7aed600
0xffffb7aed928
0xffffb7aed69c
[CIRCULAR_BUFFER] enqueue ip: 0xffffb7aedeac index: 9
0xffffb7566100
0xffffb7aed568
0xffffb7aed580
0xffffb7aed598
0xffffb7aed5c4
0xffffb7aed940
0xffffb7aed600
0xffffb7aed928
0xffffb7aed69c
0xffffb7aedeac
[CIRCULAR_BUFFER] enqueue ip: 0xffffb7aedec0 index: 10
0xffffb7566100
0xffffb7aed568
0xffffb7aed580
0xffffb7aed598
0xffffb7aed5c4
0xffffb7aed940
0xffffb7aed600
0xffffb7aed928
0xffffb7aed69c
0xffffb7aedeac
0xffffb7aedec0
[CIRCULAR_BUFFER] enqueue ip: 0xffffb7aededc index: 11
0xffffb7566100
0xffffb7aed568
0xffffb7aed580
0xffffb7aed598
0xffffb7aed5c4
0xffffb7aed940
0xffffb7aed600
0xffffb7aed928
0xffffb7aed69c
0xffffb7aedeac
0xffffb7aedec0
0xffffb7aededc
[CIRCULAR_BUFFER] enqueue ip: 0xffffb7aedf00 index: 12
0xffffb7566100
0xffffb7aed568
0xffffb7aed580
0xffffb7aed598
0xffffb7aed5c4
0xffffb7aed940
0xffffb7aed600
0xffffb7aed928
0xffffb7aed69c
0xffffb7aedeac
0xffffb7aedec0
0xffffb7aededc
0xffffb7aedf00
[CIRCULAR_BUFFER] enqueue ip: 0xffffb7aedf08 index: 13
0xffffb7566100
0xffffb7aed568
0xffffb7aed580
0xffffb7aed598
0xffffb7aed5c4
0xffffb7aed940
0xffffb7aed600
0xffffb7aed928
0xffffb7aed69c
0xffffb7aedeac
0xffffb7aedec0
0xffffb7aededc
0xffffb7aedf00
0xffffb7aedf08
[CIRCULAR_BUFFER] enqueue ip: 0xffffb748f8b0 index: 0
0xffffb748f8b0
[CIRCULAR_BUFFER] enqueue ip: 0xffffb748f8c0 index: 1
0xffffb748f8b0
0xffffb748f8c0
[CIRCULAR_BUFFER] enqueue ip: 0xffffb748f8e0 index: 2
0xffffb748f8b0
0xffffb748f8c0
0xffffb748f8e0
[CIRCULAR_BUFFER] enqueue ip: 0xffffb748fa60 index: 0
0xffffb748fa60
[CIRCULAR_BUFFER] enqueue ip: 0xffffb76175a0 index: 1
0xffffb748fa60
0xffffb76175a0
[CIRCULAR_BUFFER] enqueue ip: 0xffffb76175c0 index: 0
0xffffb76175c0
[CIRCULAR_BUFFER] enqueue ip: 0xffffb748faa0 index: 1
0xffffb76175c0
0xffffb748faa0
[CIRCULAR_BUFFER] enqueue ip: 0xffffb748fac0 index: 2
0xffffb76175c0
0xffffb748faa0
0xffffb748fac0
[CIRCULAR_BUFFER] enqueue ip: 0xffffb748fad0 index: 0
0xffffb748fad0
[CIRCULAR_BUFFER] enqueue ip: 0xffffb7629bd0 index: 0
0xffffb7629bd0
[CIRCULAR_BUFFER] enqueue ip: 0xffffb748fb00 index: 1
0xffffb7629bd0
0xffffb748fb00
[CIRCULAR_BUFFER] enqueue ip: 0xffffb748fb14 index: 2
0xffffb7629bd0
0xffffb748fb00
0xffffb748fb14
[CIRCULAR_BUFFER] enqueue ip: 0xffffb74900bc index: 3
0xffffb7629bd0
0xffffb748fb00
0xffffb748fb14
0xffffb74900bc
[CIRCULAR_BUFFER] enqueue ip: 0xffffb74900c0 index: 4
0xffffb7629bd0
0xffffb748fb00
0xffffb748fb14
0xffffb74900bc
0xffffb74900c0
[CIRCULAR_BUFFER] enqueue ip: 0xffffb748fb48 index: 5
0xffffb7629bd0
0xffffb748fb00
0xffffb748fb14
0xffffb74900bc
0xffffb74900c0
0xffffb748fb48
[CIRCULAR_BUFFER] enqueue ip: 0xffffb748fb80 index: 6
0xffffb7629bd0
0xffffb748fb00
0xffffb748fb14
0xffffb74900bc
0xffffb74900c0
0xffffb748fb48
0xffffb748fb80
[CIRCULAR_BUFFER] enqueue ip: 0xffffb7aedf40 index: 7
0xffffb7629bd0
0xffffb748fb00
0xffffb748fb14
0xffffb74900bc
0xffffb74900c0
0xffffb748fb48
0xffffb748fb80
0xffffb7aedf40
[CIRCULAR_BUFFER] enqueue ip: 0xffffb7aedf68 index: 8
0xffffb7629bd0
0xffffb748fb00
0xffffb748fb14
0xffffb74900bc
0xffffb74900c0
0xffffb748fb48
0xffffb748fb80
0xffffb7aedf40
0xffffb7aedf68
[CIRCULAR_BUFFER] enqueue ip: 0xffffb7aee348 index: 9
0xffffb7629bd0
0xffffb748fb00
0xffffb748fb14
0xffffb74900bc
0xffffb74900c0
0xffffb748fb48
0xffffb748fb80
0xffffb7aedf40
0xffffb7aedf68
0xffffb7aee348
[CIRCULAR_BUFFER] enqueue ip: 0xffffb7aedf98 index: 10
0xffffb7629bd0
0xffffb748fb00
0xffffb748fb14
0xffffb74900bc
0xffffb74900c0
0xffffb748fb48
0xffffb748fb80
0xffffb7aedf40
0xffffb7aedf68
0xffffb7aee348
0xffffb7aedf98
[CIRCULAR_BUFFER] enqueue ip: 0xffffb7aedfcc index: 11
0xffffb7629bd0
0xffffb748fb00
0xffffb748fb14
0xffffb74900bc
0xffffb74900c0
0xffffb748fb48
0xffffb748fb80
0xffffb7aedf40
0xffffb7aedf68
0xffffb7aee348
0xffffb7aedf98
0xffffb7aedfcc
[CIRCULAR_BUFFER] enqueue ip: 0xffffb7aee000 index: 12
0xffffb7629bd0
0xffffb748fb00
0xffffb748fb14
0xffffb74900bc
0xffffb74900c0
0xffffb748fb48
0xffffb748fb80
0xffffb7aedf40
0xffffb7aedf68
0xffffb7aee348
0xffffb7aedf98
0xffffb7aedfcc
0xffffb7aee000
[CIRCULAR_BUFFER] enqueue ip: 0xffffb7aed8e4 index: 13
0xffffb7629bd0
0xffffb748fb00
0xffffb748fb14
0xffffb74900bc
0xffffb74900c0
0xffffb748fb48
0xffffb748fb80
0xffffb7aedf40
0xffffb7aedf68
0xffffb7aee348
0xffffb7aedf98
0xffffb7aedfcc
0xffffb7aee000
0xffffb7aed8e4
[CIRCULAR_BUFFER] enqueue ip: 0xffffb7aed8b4 index: 0
0xffffb7aed8b4
[CIRCULAR_BUFFER] enqueue ip: 0xffffb7566938 index: 1
0xffffb7aed8b4
0xffffb7566938
[CIRCULAR_BUFFER] enqueue ip: 0xffffb7566168 index: 2
0xffffb7aed8b4
0xffffb7566938
0xffffb7566168
[CIRCULAR_BUFFER] enqueue ip: 0xffffb756619c index: 3
0xffffb7aed8b4
0xffffb7566938
0xffffb7566168
0xffffb756619c
[CIRCULAR_BUFFER] enqueue ip: 0xffffb75661c0 index: 4
0xffffb7aed8b4
0xffffb7566938
0xffffb7566168
0xffffb756619c
0xffffb75661c0
[CIRCULAR_BUFFER] enqueue ip: 0xffffb75661cc index: 5
0xffffb7aed8b4
0xffffb7566938
0xffffb7566168
0xffffb756619c
0xffffb75661c0
0xffffb75661cc
[CIRCULAR_BUFFER] enqueue ip: 0xffffb7566200 index: 6
0xffffb7aed8b4
0xffffb7566938
0xffffb7566168
0xffffb756619c
0xffffb75661c0
0xffffb75661cc
0xffffb7566200
[CIRCULAR_BUFFER] enqueue ip: 0xffffb7566240 index: 7
0xffffb7aed8b4
0xffffb7566938
0xffffb7566168
0xffffb756619c
0xffffb75661c0
0xffffb75661cc
0xffffb7566200
0xffffb7566240
[CIRCULAR_BUFFER] enqueue ip: 0xffffb7566290 index: 8
0xffffb7aed8b4
0xffffb7566938
0xffffb7566168
0xffffb756619c
0xffffb75661c0
0xffffb75661cc
0xffffb7566200
0xffffb7566240
0xffffb7566290
[CIRCULAR_BUFFER] enqueue ip: 0xffffb75662c4 index: 9
0xffffb7aed8b4
0xffffb7566938
0xffffb7566168
0xffffb756619c
0xffffb75661c0
0xffffb75661cc
0xffffb7566200
0xffffb7566240
0xffffb7566290
0xffffb75662c4
[CIRCULAR_BUFFER] enqueue ip: 0xffffb7566320 index: 10
0xffffb7aed8b4
0xffffb7566938
0xffffb7566168
0xffffb756619c
0xffffb75661c0
0xffffb75661cc
0xffffb7566200
0xffffb7566240
0xffffb7566290
0xffffb75662c4
0xffffb7566320
[CIRCULAR_BUFFER] enqueue ip: 0xffffb7566354 index: 11
0xffffb7aed8b4
0xffffb7566938
0xffffb7566168
0xffffb756619c
0xffffb75661c0
0xffffb75661cc
0xffffb7566200
0xffffb7566240
0xffffb7566290
0xffffb75662c4
0xffffb7566320
0xffffb7566354
[CIRCULAR_BUFFER] enqueue ip: 0xffffb75663d4 index: 12
0xffffb7aed8b4
0xffffb7566938
0xffffb7566168
0xffffb756619c
0xffffb75661c0
0xffffb75661cc
0xffffb7566200
0xffffb7566240
0xffffb7566290
0xffffb75662c4
0xffffb7566320
0xffffb7566354
0xffffb75663d4
[CIRCULAR_BUFFER] enqueue ip: 0xffffb7566538 index: 13
0xffffb7aed8b4
0xffffb7566938
0xffffb7566168
0xffffb756619c
0xffffb75661c0
0xffffb75661cc
0xffffb7566200
0xffffb7566240
0xffffb7566290
0xffffb75662c4
0xffffb7566320
0xffffb7566354
0xffffb75663d4
0xffffb7566538
[CIRCULAR_BUFFER] enqueue ip: 0xffffb7566424 index: 14
0xffffb7aed8b4
0xffffb7566938
0xffffb7566168
0xffffb756619c
0xffffb75661c0
0xffffb75661cc
0xffffb7566200
0xffffb7566240
0xffffb7566290
0xffffb75662c4
0xffffb7566320
0xffffb7566354
0xffffb75663d4
0xffffb7566538
0xffffb7566424
[CIRCULAR_BUFFER] enqueue ip: 0xffffb7566440 index: 15
0xffffb7aed8b4
0xffffb7566938
0xffffb7566168
0xffffb756619c
0xffffb75661c0
0xffffb75661cc
0xffffb7566200
0xffffb7566240
0xffffb7566290
0xffffb75662c4
0xffffb7566320
0xffffb7566354
0xffffb75663d4
0xffffb7566538
0xffffb7566424
0xffffb7566440
[CIRCULAR_BUFFER] enqueue ip: 0xffffb7566480 index: 16
0xffffb7aed8b4
0xffffb7566938
0xffffb7566168
0xffffb756619c
0xffffb75661c0
0xffffb75661cc
0xffffb7566200
0xffffb7566240
0xffffb7566290
0xffffb75662c4
0xffffb7566320
0xffffb7566354
0xffffb75663d4
0xffffb7566538
0xffffb7566424
0xffffb7566440
0xffffb7566480
[CIRCULAR_BUFFER] enqueue ip: 0xffffb75664c0 index: 17
0xffffb7aed8b4
0xffffb7566938
0xffffb7566168
0xffffb756619c
0xffffb75661c0
0xffffb75661cc
0xffffb7566200
0xffffb7566240
0xffffb7566290
0xffffb75662c4
0xffffb7566320
0xffffb7566354
0xffffb75663d4
0xffffb7566538
0xffffb7566424
0xffffb7566440
0xffffb7566480
0xffffb75664c0
[CIRCULAR_BUFFER] enqueue ip: 0xffffb75664c8 index: 0
0xffffb75664c8
[CIRCULAR_BUFFER] enqueue ip: 0xffffa816c540 index: 1
0xffffb75664c8
0xffffa816c540
[CIRCULAR_BUFFER] enqueue ip: 0xffffa816c580 index: 2
0xffffb75664c8
0xffffa816c540
0xffffa816c580
[CIRCULAR_BUFFER] enqueue ip: 0xffffa816c588 index: 3
0xffffb75664c8
0xffffa816c540
0xffffa816c580
0xffffa816c588
[CIRCULAR_BUFFER] enqueue ip: 0xffffa816c5c0 index: 4
0xffffb75664c8
0xffffa816c540
0xffffa816c580
0xffffa816c588
0xffffa816c5c0
[CIRCULAR_BUFFER] enqueue ip: 0xffffa816c5c8 index: 0
0xffffa816c5c8
[CIRCULAR_BUFFER] enqueue ip: 0xffffa82cc540 index: 0
0xffffa82cc540
[CIRCULAR_BUFFER] enqueue ip: 0xffffa82cc548 index: 1
0xffffa82cc540
0xffffa82cc548
[CIRCULAR_BUFFER] enqueue ip: 0xffffa840d540 index: 0
0xffffa840d540
[CIRCULAR_BUFFER] enqueue ip: 0xffffa835057c index: 0
0xffffa835057c
[CIRCULAR_BUFFER] enqueue ip: 0xffffa80bf558 index: 0
0xffffa80bf558
[CIRCULAR_BUFFER] enqueue ip: 0xffffa8384540 index: 0
0xffffa8384540
[CIRCULAR_BUFFER] enqueue ip: 0xffffa8384544 index: 1
0xffffa8384540
0xffffa8384544
[CIRCULAR_BUFFER] enqueue ip: 0xffffa8384768 index: 0
0xffffa8384768
[CIRCULAR_BUFFER] enqueue ip: 0xffffa8384640 index: 1
0xffffa8384768
0xffffa8384640
[CIRCULAR_BUFFER] enqueue ip: 0xffffa8384680 index: 2
0xffffa8384768
0xffffa8384640
0xffffa8384680
[CIRCULAR_BUFFER] enqueue ip: 0xffffa8384688 index: 3
0xffffa8384768
0xffffa8384640
0xffffa8384680
0xffffa8384688
[CIRCULAR_BUFFER] enqueue ip: 0xffffa83846c0 index: 4
0xffffa8384768
0xffffa8384640
0xffffa8384680
0xffffa8384688
0xffffa83846c0
[CIRCULAR_BUFFER] enqueue ip: 0xffffa83846c8 index: 5
0xffffa8384768
0xffffa8384640
0xffffa8384680
0xffffa8384688
0xffffa83846c0
0xffffa83846c8
Finished CPU 0 instructions: 1000000 cycles: 1072415 cumulative IPC: 0.932475 (Simulation time: 0 hr 0 min 1 sec) 

ChampSim completed all CPUs

Region of Interest Statistics

CPU 0 cumulative IPC: 0.932475 instructions: 1000000 cycles: 1072415
L1D TOTAL     ACCESS:     253957  HIT:     248935  MISS:       5022
L1D LOAD      ACCESS:     146240  HIT:     142104  MISS:       4136
L1D RFO       ACCESS:     107717  HIT:     106831  MISS:        886
L1D PREFETCH  ACCESS:          0  HIT:          0  MISS:          0
L1D WRITEBACK ACCESS:          0  HIT:          0  MISS:          0
L1D PREFETCH  REQUESTED:          0  ISSUED:          0  USEFUL:          0  USELESS:          0
L1D AVERAGE MISS LATENCY: 127.427 cycles
L1I TOTAL     ACCESS:     173319  HIT:     165559  MISS:       7760
L1I LOAD      ACCESS:     165600  HIT:     157840  MISS:       7760
L1I RFO       ACCESS:          0  HIT:          0  MISS:          0
L1I PREFETCH  ACCESS:       7719  HIT:       7719  MISS:          0
L1I WRITEBACK ACCESS:          0  HIT:          0  MISS:          0
L1I PREFETCH  REQUESTED:      10967  ISSUED:      10967  USEFUL:          0  USELESS:          0
L1I AVERAGE MISS LATENCY: 45.6206 cycles
L2C TOTAL     ACCESS:      15075  HIT:      10035  MISS:       5040
L2C LOAD      ACCESS:      11896  HIT:       7505  MISS:       4391
L2C RFO       ACCESS:        886  HIT:        237  MISS:        649
L2C PREFETCH  ACCESS:          0  HIT:          0  MISS:          0
L2C WRITEBACK ACCESS:       2293  HIT:       2293  MISS:          0
L2C PREFETCH  REQUESTED:          0  ISSUED:          0  USEFUL:          0  USELESS:          0
L2C AVERAGE MISS LATENCY: 157.951 cycles
LLC TOTAL     ACCESS:       5072  HIT:         34  MISS:       5038
LLC LOAD      ACCESS:       4391  HIT:          2  MISS:       4389
LLC RFO       ACCESS:        649  HIT:          0  MISS:        649
LLC PREFETCH  ACCESS:          0  HIT:          0  MISS:          0
LLC WRITEBACK ACCESS:         32  HIT:         32  MISS:          0
LLC PREFETCH  REQUESTED:          0  ISSUED:          0  USEFUL:          0  USELESS:          0
LLC AVERAGE MISS LATENCY: 126.861 cycles
Major fault: 0 Minor fault: 625

DRAM Statistics
 CHANNEL 0
 RQ ROW_BUFFER_HIT:       2456  ROW_BUFFER_MISS:       2582
 DBUS_CONGESTED:        855
 WQ ROW_BUFFER_HIT:          0  ROW_BUFFER_MISS:          0  FULL:          0

 AVG_CONGESTED_CYCLE: 6

CPU 0 Branch Prediction Accuracy: 95.8449% MPKI: 7.13899 Average ROB Occupancy at Mispredict: 55.2308

Branch types
NOT_BRANCH: 828357 82.8357%
BRANCH_DIRECT_JUMP: 6493 0.6493%
BRANCH_INDIRECT: 539 0.0539%
BRANCH_CONDITIONAL: 142134 14.2134%
BRANCH_DIRECT_CALL: 10950 1.095%
BRANCH_INDIRECT_CALL: 374 0.0374%
BRANCH_RETURN: 11322 1.1322%
BRANCH_OTHER: 0 0%

